MODEL 1
REMARK VINA RESULT:      -7.6      0.000      0.000
REMARK  6 active torsions:
REMARK  status: ('A' for Active; 'I' for Inactive)
REMARK    1  A    between atoms: C1_2  and  C2_3 
REMARK       I    between atoms: C1_2  and  N4_13 
REMARK    2  A    between atoms: C2_3  and  N1_4 
REMARK    3  A    between atoms: N4_13  and  C9_14 
REMARK    4  A    between atoms: N4_13  and  C16_22 
REMARK    5  A    between atoms: C9_14  and  C10_15 
REMARK    6  A    between atoms: C19_25  and  C20_26 
ROOT
ATOM      1  O1  UNK     1      15.158   4.015  10.957  1.00  0.00    -0.271 OA
ATOM      2  C1  UNK     1      16.333   3.637  11.038  1.00  0.00     0.244 C 
ATOM      3  N4  UNK     1      17.040   3.156   9.912  1.00  0.00    -0.311 N 
ENDROOT
BRANCH   3   4
ATOM      4  C9  UNK     1      16.275   3.118   8.654  1.00  0.00     0.170 C 
BRANCH   4   5
ATOM      5  C10 UNK     1      15.703   1.768   8.271  1.00  0.00    -0.038 A 
ATOM      6  C11 UNK     1      16.451   0.825   7.553  1.00  0.00     0.009 A 
ATOM      7  C12 UNK     1      15.961  -0.472   7.348  1.00  0.00     0.002 A 
ATOM      8  C13 UNK     1      14.723  -0.845   7.869  1.00  0.00     0.024 A 
ATOM      9  C14 UNK     1      13.972   0.084   8.583  1.00  0.00     0.034 A 
ATOM     10 Cl1  UNK     1      12.454  -0.380   9.253  1.00  0.00    -0.084 Cl
ATOM     11  C15 UNK     1      14.453   1.379   8.786  1.00  0.00     0.032 A 
ENDBRANCH   4   5
ENDBRANCH   3   4
BRANCH   3  12
ATOM     12  C16 UNK     1      18.419   3.504   9.821  1.00  0.00     0.055 A 
ATOM     13  C17 UNK     1      18.801   4.717   9.253  1.00  0.00     0.033 A 
ATOM     14  C18 UNK     1      20.127   4.899   8.860  1.00  0.00     0.035 A 
ATOM     15  C19 UNK     1      21.037   3.866   9.069  1.00  0.00     0.069 A 
ATOM     16  N7  UNK     1      20.702   2.713   9.700  1.00  0.00    -0.258 NA
ATOM     17  C23 UNK     1      19.412   2.558  10.060  1.00  0.00     0.147 A 
BRANCH  15  18
ATOM     18  C20 UNK     1      22.406   3.955   8.510  1.00  0.00     0.031 A 
ATOM     19  C21 UNK     1      22.944   3.414   7.365  1.00  0.00     0.156 A 
ATOM     20  N5  UNK     1      24.254   3.672   7.220  1.00  0.00    -0.162 NA
ATOM     21  N6  UNK     1      24.614   4.418   8.285  1.00  0.00    -0.162 NA
ATOM     22  C22 UNK     1      23.510   4.580   9.036  1.00  0.00     0.156 A 
ENDBRANCH  15  18
ENDBRANCH   3  12
BRANCH   2  23
ATOM     23  C2  UNK     1      17.049   3.719  12.382  1.00  0.00     0.250 C 
BRANCH  23  24
ATOM     24  N1  UNK     1      17.404   5.073  12.750  1.00  0.00    -0.263 N 
ATOM     25  N2  UNK     1      16.442   5.995  12.964  1.00  0.00     0.006 NA
ATOM     26  N3  UNK     1      17.034   7.160  13.175  1.00  0.00    -0.158 NA
ATOM     27  C3  UNK     1      18.384   6.971  13.090  1.00  0.00     0.102 A 
ATOM     28  C4  UNK     1      19.435   7.896  13.208  1.00  0.00     0.035 A 
ATOM     29  C8  UNK     1      18.658   5.631  12.831  1.00  0.00     0.079 A 
ATOM     30  C5  UNK     1      20.746   7.427  13.074  1.00  0.00     0.002 A 
ATOM     31  C6  UNK     1      21.003   6.076  12.837  1.00  0.00     0.002 A 
ATOM     32  C7  UNK     1      19.964   5.141  12.712  1.00  0.00     0.033 A 
ENDBRANCH  23  24
ENDBRANCH   2  23
TORSDOF 6
ENDMDL
MODEL 2
REMARK VINA RESULT:      -7.3      1.546      2.128
REMARK  6 active torsions:
REMARK  status: ('A' for Active; 'I' for Inactive)
REMARK    1  A    between atoms: C1_2  and  C2_3 
REMARK       I    between atoms: C1_2  and  N4_13 
REMARK    2  A    between atoms: C2_3  and  N1_4 
REMARK    3  A    between atoms: N4_13  and  C9_14 
REMARK    4  A    between atoms: N4_13  and  C16_22 
REMARK    5  A    between atoms: C9_14  and  C10_15 
REMARK    6  A    between atoms: C19_25  and  C20_26 
ROOT
ATOM      1  O1  UNK     1      15.048   4.033  10.810  1.00  0.00    -0.271 OA
ATOM      2  C1  UNK     1      16.219   3.659  10.941  1.00  0.00     0.244 C 
ATOM      3  N4  UNK     1      16.959   3.137   9.855  1.00  0.00    -0.311 N 
ENDROOT
BRANCH   3   4
ATOM      4  C9  UNK     1      16.233   3.052   8.577  1.00  0.00     0.170 C 
BRANCH   4   5
ATOM      5  C10 UNK     1      15.691   1.684   8.216  1.00  0.00    -0.038 A 
ATOM      6  C11 UNK     1      16.466   0.739   7.529  1.00  0.00     0.009 A 
ATOM      7  C12 UNK     1      16.003  -0.570   7.347  1.00  0.00     0.002 A 
ATOM      8  C13 UNK     1      14.764  -0.955   7.858  1.00  0.00     0.024 A 
ATOM      9  C14 UNK     1      13.987  -0.025   8.542  1.00  0.00     0.034 A 
ATOM     10 Cl1  UNK     1      12.469  -0.502   9.201  1.00  0.00    -0.084 Cl
ATOM     11  C15 UNK     1      14.441   1.283   8.723  1.00  0.00     0.032 A 
ENDBRANCH   4   5
ENDBRANCH   3   4
BRANCH   3  12
ATOM     12  C16 UNK     1      18.341   3.482   9.793  1.00  0.00     0.055 A 
ATOM     13  C17 UNK     1      18.734   4.718   9.285  1.00  0.00     0.033 A 
ATOM     14  C18 UNK     1      20.064   4.911   8.912  1.00  0.00     0.035 A 
ATOM     15  C19 UNK     1      20.968   3.865   9.083  1.00  0.00     0.069 A 
ATOM     16  N7  UNK     1      20.621   2.687   9.658  1.00  0.00    -0.258 NA
ATOM     17  C23 UNK     1      19.328   2.521   9.998  1.00  0.00     0.147 A 
BRANCH  15  18
ATOM     18  C20 UNK     1      22.343   3.973   8.541  1.00  0.00     0.031 A 
ATOM     19  C21 UNK     1      22.917   3.395   7.434  1.00  0.00     0.156 A 
ATOM     20  N5  UNK     1      24.220   3.689   7.296  1.00  0.00    -0.162 NA
ATOM     21  N6  UNK     1      24.537   4.499   8.328  1.00  0.00    -0.162 NA
ATOM     22  C22 UNK     1      23.416   4.660   9.053  1.00  0.00     0.156 A 
ENDBRANCH  15  18
ENDBRANCH   3  12
BRANCH   2  23
ATOM     23  C2  UNK     1      16.895   3.790  12.302  1.00  0.00     0.250 C 
BRANCH  23  24
ATOM     24  N1  UNK     1      16.764   5.115  12.871  1.00  0.00    -0.263 N 
ATOM     25  N2  UNK     1      17.375   6.168  12.288  1.00  0.00     0.006 NA
ATOM     26  N3  UNK     1      17.186   7.227  13.061  1.00  0.00    -0.158 NA
ATOM     27  C3  UNK     1      16.452   6.835  14.145  1.00  0.00     0.102 A 
ATOM     28  C4  UNK     1      16.018   7.574  15.258  1.00  0.00     0.035 A 
ATOM     29  C8  UNK     1      16.150   5.479  14.045  1.00  0.00     0.079 A 
ATOM     30  C5  UNK     1      15.270   6.914  16.238  1.00  0.00     0.002 A 
ATOM     31  C6  UNK     1      14.958   5.560  16.111  1.00  0.00     0.002 A 
ATOM     32  C7  UNK     1      15.388   4.808  15.008  1.00  0.00     0.033 A 
ENDBRANCH  23  24
ENDBRANCH   2  23
TORSDOF 6
ENDMDL
MODEL 3
REMARK VINA RESULT:      -6.9     29.323     32.338
REMARK  6 active torsions:
REMARK  status: ('A' for Active; 'I' for Inactive)
REMARK    1  A    between atoms: C1_2  and  C2_3 
REMARK       I    between atoms: C1_2  and  N4_13 
REMARK    2  A    between atoms: C2_3  and  N1_4 
REMARK    3  A    between atoms: N4_13  and  C9_14 
REMARK    4  A    between atoms: N4_13  and  C16_22 
REMARK    5  A    between atoms: C9_14  and  C10_15 
REMARK    6  A    between atoms: C19_25  and  C20_26 
ROOT
ATOM      1  O1  UNK     1      -0.080   0.764 -18.349  1.00  0.00    -0.271 OA
ATOM      2  C1  UNK     1       0.909   0.853 -17.612  1.00  0.00     0.244 C 
ATOM      3  N4  UNK     1       2.178   0.370 -18.007  1.00  0.00    -0.311 N 
ENDROOT
BRANCH   3   4
ATOM      4  C9  UNK     1       2.229  -0.258 -19.338  1.00  0.00     0.170 C 
BRANCH   4   5
ATOM      5  C10 UNK     1       2.390  -1.764 -19.351  1.00  0.00    -0.038 A 
ATOM      6  C11 UNK     1       3.338  -2.413 -18.547  1.00  0.00     0.009 A 
ATOM      7  C12 UNK     1       3.363  -3.810 -18.455  1.00  0.00     0.002 A 
ATOM      8  C13 UNK     1       2.433  -4.577 -19.156  1.00  0.00     0.024 A 
ATOM      9  C14 UNK     1       1.488  -3.943 -19.957  1.00  0.00     0.034 A 
ATOM     10 Cl1  UNK     1       0.318  -4.883 -20.804  1.00  0.00    -0.084 Cl
ATOM     11  C15 UNK     1       1.462  -2.551 -20.056  1.00  0.00     0.032 A 
ENDBRANCH   4   5
ENDBRANCH   3   4
BRANCH   3  12
ATOM     12  C16 UNK     1       3.311   1.138 -17.610  1.00  0.00     0.055 A 
ATOM     13  C17 UNK     1       4.041   0.780 -16.479  1.00  0.00     0.033 A 
ATOM     14  C18 UNK     1       4.915   1.706 -15.909  1.00  0.00     0.035 A 
ATOM     15  C19 UNK     1       5.049   2.957 -16.504  1.00  0.00     0.069 A 
ATOM     16  N7  UNK     1       4.413   3.292 -17.655  1.00  0.00    -0.258 NA
ATOM     17  C23 UNK     1       3.565   2.384 -18.179  1.00  0.00     0.147 A 
BRANCH  15  18
ATOM     18  C20 UNK     1       5.830   4.022 -15.832  1.00  0.00     0.031 A 
ATOM     19  C21 UNK     1       6.691   3.963 -14.762  1.00  0.00     0.156 A 
ATOM     20  N5  UNK     1       7.173   5.163 -14.400  1.00  0.00    -0.162 NA
ATOM     21  N6  UNK     1       6.637   6.060 -15.253  1.00  0.00    -0.162 NA
ATOM     22  C22 UNK     1       5.848   5.370 -16.096  1.00  0.00     0.156 A 
ENDBRANCH  15  18
ENDBRANCH   3  12
BRANCH   2  23
ATOM     23  C2  UNK     1       0.765   1.525 -16.250  1.00  0.00     0.250 C 
BRANCH  23  24
ATOM     24  N1  UNK     1      -0.539   2.122 -16.053  1.00  0.00    -0.263 N 
ATOM     25  N2  UNK     1      -1.530   1.414 -15.470  1.00  0.00     0.006 NA
ATOM     26  N3  UNK     1      -2.632   2.147 -15.512  1.00  0.00    -0.158 NA
ATOM     27  C3  UNK     1      -2.333   3.328 -16.130  1.00  0.00     0.102 A 
ATOM     28  C4  UNK     1      -3.161   4.420 -16.441  1.00  0.00     0.035 A 
ATOM     29  C8  UNK     1      -0.986   3.350 -16.479  1.00  0.00     0.079 A 
ATOM     30  C5  UNK     1      -2.587   5.519 -17.088  1.00  0.00     0.002 A 
ATOM     31  C6  UNK     1      -1.230   5.534 -17.411  1.00  0.00     0.002 A 
ATOM     32  C7  UNK     1      -0.392   4.449 -17.111  1.00  0.00     0.033 A 
ENDBRANCH  23  24
ENDBRANCH   2  23
TORSDOF 6
ENDMDL
MODEL 4
REMARK VINA RESULT:      -6.8     28.865     32.338
REMARK  6 active torsions:
REMARK  status: ('A' for Active; 'I' for Inactive)
REMARK    1  A    between atoms: C1_2  and  C2_3 
REMARK       I    between atoms: C1_2  and  N4_13 
REMARK    2  A    between atoms: C2_3  and  N1_4 
REMARK    3  A    between atoms: N4_13  and  C9_14 
REMARK    4  A    between atoms: N4_13  and  C16_22 
REMARK    5  A    between atoms: C9_14  and  C10_15 
REMARK    6  A    between atoms: C19_25  and  C20_26 
ROOT
ATOM      1  O1  UNK     1       1.414   0.402 -18.065  1.00  0.00    -0.271 OA
ATOM      2  C1  UNK     1       2.564   0.282 -18.504  1.00  0.00     0.244 C 
ATOM      3  N4  UNK     1       3.698   0.507 -17.691  1.00  0.00    -0.311 N 
ENDROOT
BRANCH   3   4
ATOM      4  C9  UNK     1       3.412   0.911 -16.304  1.00  0.00     0.170 C 
BRANCH   4   5
ATOM      5  C10 UNK     1       4.402   1.873 -15.680  1.00  0.00    -0.038 A 
ATOM      6  C11 UNK     1       5.452   1.428 -14.865  1.00  0.00     0.009 A 
ATOM      7  C12 UNK     1       6.446   2.314 -14.430  1.00  0.00     0.002 A 
ATOM      8  C13 UNK     1       6.409   3.654 -14.813  1.00  0.00     0.024 A 
ATOM      9  C14 UNK     1       5.370   4.107 -15.621  1.00  0.00     0.034 A 
ATOM     10 Cl1  UNK     1       5.334   5.755 -16.122  1.00  0.00    -0.084 Cl
ATOM     11  C15 UNK     1       4.375   3.229 -16.054  1.00  0.00     0.032 A 
ENDBRANCH   4   5
ENDBRANCH   3   4
BRANCH   3  12
ATOM     12  C16 UNK     1       4.818  -0.350 -17.897  1.00  0.00     0.055 A 
ATOM     13  C17 UNK     1       4.879  -1.591 -17.266  1.00  0.00     0.033 A 
ATOM     14  C18 UNK     1       6.100  -2.261 -17.195  1.00  0.00     0.035 A 
ATOM     15  C19 UNK     1       7.221  -1.679 -17.781  1.00  0.00     0.069 A 
ATOM     16  N7  UNK     1       7.161  -0.515 -18.475  1.00  0.00    -0.258 NA
ATOM     17  C23 UNK     1       5.973   0.119 -18.518  1.00  0.00     0.147 A 
BRANCH  15  18
ATOM     18  C20 UNK     1       8.563  -2.274 -17.576  1.00  0.00     0.031 A 
ATOM     19  C21 UNK     1       9.519  -2.662 -18.484  1.00  0.00     0.156 A 
ATOM     20  N5  UNK     1      10.600  -3.217 -17.912  1.00  0.00    -0.162 NA
ATOM     21  N6  UNK     1      10.379  -3.194 -16.582  1.00  0.00    -0.162 NA
ATOM     22  C22 UNK     1       9.173  -2.630 -16.398  1.00  0.00     0.156 A 
ENDBRANCH  15  18
ENDBRANCH   3  12
BRANCH   2  23
ATOM     23  C2  UNK     1       2.766  -0.148 -19.954  1.00  0.00     0.250 C 
BRANCH  23  24
ATOM     24  N1  UNK     1       1.895  -1.235 -20.345  1.00  0.00    -0.263 N 
ATOM     25  N2  UNK     1       0.693  -0.977 -20.902  1.00  0.00     0.006 NA
ATOM     26  N3  UNK     1       0.062  -2.131 -21.061  1.00  0.00    -0.158 NA
ATOM     27  C3  UNK     1       0.874  -3.126 -20.596  1.00  0.00     0.102 A 
ATOM     28  C4  UNK     1       0.652  -4.511 -20.517  1.00  0.00     0.035 A 
ATOM     29  C8  UNK     1       2.072  -2.583 -20.140  1.00  0.00     0.079 A 
ATOM     30  C5  UNK     1       1.668  -5.313 -19.989  1.00  0.00     0.002 A 
ATOM     31  C6  UNK     1       2.872  -4.754 -19.557  1.00  0.00     0.002 A 
ATOM     32  C7  UNK     1       3.107  -3.373 -19.625  1.00  0.00     0.033 A 
ENDBRANCH  23  24
ENDBRANCH   2  23
TORSDOF 6
ENDMDL
MODEL 5
REMARK VINA RESULT:      -6.8     29.784     33.653
REMARK  6 active torsions:
REMARK  status: ('A' for Active; 'I' for Inactive)
REMARK    1  A    between atoms: C1_2  and  C2_3 
REMARK       I    between atoms: C1_2  and  N4_13 
REMARK    2  A    between atoms: C2_3  and  N1_4 
REMARK    3  A    between atoms: N4_13  and  C9_14 
REMARK    4  A    between atoms: N4_13  and  C16_22 
REMARK    5  A    between atoms: C9_14  and  C10_15 
REMARK    6  A    between atoms: C19_25  and  C20_26 
ROOT
ATOM      1  O1  UNK     1       4.170  -0.022 -20.428  1.00  0.00    -0.271 OA
ATOM      2  C1  UNK     1       3.352   0.031 -19.502  1.00  0.00     0.244 C 
ATOM      3  N4  UNK     1       3.525   0.907 -18.405  1.00  0.00    -0.311 N 
ENDROOT
BRANCH   3   4
ATOM      4  C9  UNK     1       4.748   1.725 -18.437  1.00  0.00     0.170 C 
BRANCH   4   5
ATOM      5  C10 UNK     1       5.441   1.927 -17.104  1.00  0.00    -0.038 A 
ATOM      6  C11 UNK     1       5.368   3.143 -16.410  1.00  0.00     0.009 A 
ATOM      7  C12 UNK     1       5.879   3.258 -15.111  1.00  0.00     0.002 A 
ATOM      8  C13 UNK     1       6.460   2.155 -14.485  1.00  0.00     0.024 A 
ATOM      9  C14 UNK     1       6.537   0.944 -15.165  1.00  0.00     0.034 A 
ATOM     10 Cl1  UNK     1       7.227  -0.429 -14.386  1.00  0.00    -0.084 Cl
ATOM     11  C15 UNK     1       6.033   0.825 -16.462  1.00  0.00     0.032 A 
ENDBRANCH   4   5
ENDBRANCH   3   4
BRANCH   3  12
ATOM     12  C16 UNK     1       2.350   1.519 -17.879  1.00  0.00     0.055 A 
ATOM     13  C17 UNK     1       1.844   1.121 -16.644  1.00  0.00     0.033 A 
ATOM     14  C18 UNK     1       0.536   1.465 -16.300  1.00  0.00     0.035 A 
ATOM     15  C19 UNK     1      -0.218   2.219 -17.194  1.00  0.00     0.069 A 
ATOM     16  N7  UNK     1       0.288   2.688 -18.362  1.00  0.00    -0.258 NA
ATOM     17  C23 UNK     1       1.549   2.332 -18.677  1.00  0.00     0.147 A 
BRANCH  15  18
ATOM     18  C20 UNK     1      -1.659   2.453 -16.941  1.00  0.00     0.031 A 
ATOM     19  C21 UNK     1      -2.650   2.921 -17.771  1.00  0.00     0.156 A 
ATOM     20  N5  UNK     1      -3.838   3.052 -17.158  1.00  0.00    -0.162 NA
ATOM     21  N6  UNK     1      -3.654   2.651 -15.884  1.00  0.00    -0.162 NA
ATOM     22  C22 UNK     1      -2.362   2.296 -15.771  1.00  0.00     0.156 A 
ENDBRANCH  15  18
ENDBRANCH   3  12
BRANCH   2  23
ATOM     23  C2  UNK     1       2.108  -0.850 -19.557  1.00  0.00     0.250 C 
BRANCH  23  24
ATOM     24  N1  UNK     1       2.393  -2.244 -19.289  1.00  0.00    -0.263 N 
ATOM     25  N2  UNK     1       3.413  -2.586 -18.475  1.00  0.00     0.006 NA
ATOM     26  N3  UNK     1       3.521  -3.905 -18.490  1.00  0.00    -0.158 NA
ATOM     27  C3  UNK     1       2.561  -4.400 -19.326  1.00  0.00     0.102 A 
ATOM     28  C4  UNK     1       2.284  -5.726 -19.699  1.00  0.00     0.035 A 
ATOM     29  C8  UNK     1       1.805  -3.354 -19.847  1.00  0.00     0.079 A 
ATOM     30  C5  UNK     1       1.227  -5.954 -20.586  1.00  0.00     0.002 A 
ATOM     31  C6  UNK     1       0.465  -4.895 -21.082  1.00  0.00     0.002 A 
ATOM     32  C7  UNK     1       0.733  -3.567 -20.722  1.00  0.00     0.033 A 
ENDBRANCH  23  24
ENDBRANCH   2  23
TORSDOF 6
ENDMDL
MODEL 6
REMARK VINA RESULT:      -6.8     30.086     33.856
REMARK  6 active torsions:
REMARK  status: ('A' for Active; 'I' for Inactive)
REMARK    1  A    between atoms: C1_2  and  C2_3 
REMARK       I    between atoms: C1_2  and  N4_13 
REMARK    2  A    between atoms: C2_3  and  N1_4 
REMARK    3  A    between atoms: N4_13  and  C9_14 
REMARK    4  A    between atoms: N4_13  and  C16_22 
REMARK    5  A    between atoms: C9_14  and  C10_15 
REMARK    6  A    between atoms: C19_25  and  C20_26 
ROOT
ATOM      1  O1  UNK     1       2.476   1.361 -20.392  1.00  0.00    -0.271 OA
ATOM      2  C1  UNK     1       1.717   1.210 -19.427  1.00  0.00     0.244 C 
ATOM      3  N4  UNK     1       1.989   1.793 -18.167  1.00  0.00    -0.311 N 
ENDROOT
BRANCH   3   4
ATOM      4  C9  UNK     1       3.239   2.565 -18.085  1.00  0.00     0.170 C 
BRANCH   4   5
ATOM      5  C10 UNK     1       4.057   2.364 -16.825  1.00  0.00    -0.038 A 
ATOM      6  C11 UNK     1       4.159   1.112 -16.202  1.00  0.00     0.009 A 
ATOM      7  C12 UNK     1       5.043   0.914 -15.135  1.00  0.00     0.002 A 
ATOM      8  C13 UNK     1       5.846   1.961 -14.683  1.00  0.00     0.024 A 
ATOM      9  C14 UNK     1       5.753   3.208 -15.295  1.00  0.00     0.034 A 
ATOM     10 Cl1  UNK     1       6.762   4.498 -14.761  1.00  0.00    -0.084 Cl
ATOM     11  C15 UNK     1       4.869   3.413 -16.356  1.00  0.00     0.032 A 
ENDBRANCH   4   5
ENDBRANCH   3   4
BRANCH   3  12
ATOM     12  C16 UNK     1       0.872   2.288 -17.434  1.00  0.00     0.055 A 
ATOM     13  C17 UNK     1       0.338   1.547 -16.382  1.00  0.00     0.033 A 
ATOM     14  C18 UNK     1      -0.934   1.861 -15.903  1.00  0.00     0.035 A 
ATOM     15  C19 UNK     1      -1.624   2.925 -16.477  1.00  0.00     0.069 A 
ATOM     16  N7  UNK     1      -1.084   3.712 -17.441  1.00  0.00    -0.258 NA
ATOM     17  C23 UNK     1       0.141   3.380 -17.894  1.00  0.00     0.147 A 
BRANCH  15  18
ATOM     18  C20 UNK     1      -3.039   3.177 -16.116  1.00  0.00     0.031 A 
ATOM     19  C21 UNK     1      -3.626   4.244 -15.478  1.00  0.00     0.156 A 
ATOM     20  N5  UNK     1      -4.944   4.085 -15.277  1.00  0.00    -0.162 NA
ATOM     21  N6  UNK     1      -5.265   2.884 -15.802  1.00  0.00    -0.162 NA
ATOM     22  C22 UNK     1      -4.130   2.361 -16.298  1.00  0.00     0.156 A 
ENDBRANCH  15  18
ENDBRANCH   3  12
BRANCH   2  23
ATOM     23  C2  UNK     1       0.438   0.398 -19.606  1.00  0.00     0.250 C 
BRANCH  23  24
ATOM     24  N1  UNK     1       0.689  -0.957 -20.050  1.00  0.00    -0.263 N 
ATOM     25  N2  UNK     1      -0.170  -1.567 -20.893  1.00  0.00     0.006 NA
ATOM     26  N3  UNK     1       0.233  -2.819 -21.048  1.00  0.00    -0.158 NA
ATOM     27  C3  UNK     1       1.356  -3.000 -20.292  1.00  0.00     0.102 A 
ATOM     28  C4  UNK     1       2.138  -4.151 -20.096  1.00  0.00     0.035 A 
ATOM     29  C8  UNK     1       1.687  -1.812 -19.646  1.00  0.00     0.079 A 
ATOM     30  C5  UNK     1       3.252  -4.057 -19.256  1.00  0.00     0.002 A 
ATOM     31  C6  UNK     1       3.581  -2.852 -18.634  1.00  0.00     0.002 A 
ATOM     32  C7  UNK     1       2.808  -1.697 -18.816  1.00  0.00     0.033 A 
ENDBRANCH  23  24
ENDBRANCH   2  23
TORSDOF 6
ENDMDL
MODEL 7
REMARK VINA RESULT:      -6.7      2.387      6.489
REMARK  6 active torsions:
REMARK  status: ('A' for Active; 'I' for Inactive)
REMARK    1  A    between atoms: C1_2  and  C2_3 
REMARK       I    between atoms: C1_2  and  N4_13 
REMARK    2  A    between atoms: C2_3  and  N1_4 
REMARK    3  A    between atoms: N4_13  and  C9_14 
REMARK    4  A    between atoms: N4_13  and  C16_22 
REMARK    5  A    between atoms: C9_14  and  C10_15 
REMARK    6  A    between atoms: C19_25  and  C20_26 
ROOT
ATOM      1  O1  UNK     1      15.333   2.569  11.096  1.00  0.00    -0.271 OA
ATOM      2  C1  UNK     1      16.115   3.130  10.319  1.00  0.00     0.244 C 
ATOM      3  N4  UNK     1      17.272   3.798  10.781  1.00  0.00    -0.311 N 
ENDROOT
BRANCH   3   4
ATOM      4  C9  UNK     1      17.465   3.794  12.241  1.00  0.00     0.170 C 
BRANCH   4   5
ATOM      5  C10 UNK     1      17.473   5.153  12.909  1.00  0.00    -0.038 A 
ATOM      6  C11 UNK     1      18.334   6.178  12.491  1.00  0.00     0.009 A 
ATOM      7  C12 UNK     1      18.215   7.472  13.014  1.00  0.00     0.002 A 
ATOM      8  C13 UNK     1      17.226   7.761  13.953  1.00  0.00     0.024 A 
ATOM      9  C14 UNK     1      16.366   6.752  14.376  1.00  0.00     0.034 A 
ATOM     10 Cl1  UNK     1      15.124   7.110  15.515  1.00  0.00    -0.084 Cl
ATOM     11  C15 UNK     1      16.483   5.459  13.861  1.00  0.00     0.032 A 
ENDBRANCH   4   5
ENDBRANCH   3   4
BRANCH   3  12
ATOM     12  C16 UNK     1      18.442   3.691   9.974  1.00  0.00     0.055 A 
ATOM     13  C17 UNK     1      19.286   2.591  10.102  1.00  0.00     0.033 A 
ATOM     14  C18 UNK     1      20.576   2.656   9.574  1.00  0.00     0.035 A 
ATOM     15  C19 UNK     1      20.973   3.813   8.911  1.00  0.00     0.069 A 
ATOM     16  N7  UNK     1      20.136   4.859   8.701  1.00  0.00    -0.258 NA
ATOM     17  C23 UNK     1      18.899   4.777   9.231  1.00  0.00     0.147 A 
BRANCH  15  18
ATOM     18  C20 UNK     1      22.384   3.985   8.493  1.00  0.00     0.031 A 
ATOM     19  C21 UNK     1      23.059   3.504   7.396  1.00  0.00     0.156 A 
ATOM     20  N5  UNK     1      24.362   3.830   7.388  1.00  0.00    -0.162 NA
ATOM     21  N6  UNK     1      24.576   4.563   8.500  1.00  0.00    -0.162 NA
ATOM     22  C22 UNK     1      23.397   4.650   9.141  1.00  0.00     0.156 A 
ENDBRANCH  15  18
ENDBRANCH   3  12
BRANCH   2  23
ATOM     23  C2  UNK     1      15.839   3.078   8.820  1.00  0.00     0.250 C 
BRANCH  23  24
ATOM     24  N1  UNK     1      15.168   1.862   8.413  1.00  0.00    -0.263 N 
ATOM     25  N2  UNK     1      13.824   1.766   8.496  1.00  0.00     0.006 NA
ATOM     26  N3  UNK     1      13.483   0.529   8.170  1.00  0.00    -0.158 NA
ATOM     27  C3  UNK     1      14.625  -0.163   7.881  1.00  0.00     0.102 A 
ATOM     28  C4  UNK     1      14.799  -1.509   7.514  1.00  0.00     0.035 A 
ATOM     29  C8  UNK     1      15.730   0.673   8.015  1.00  0.00     0.079 A 
ATOM     30  C5  UNK     1      16.098  -1.965   7.275  1.00  0.00     0.002 A 
ATOM     31  C6  UNK     1      17.193  -1.107   7.391  1.00  0.00     0.002 A 
ATOM     32  C7  UNK     1      17.036   0.237   7.761  1.00  0.00     0.033 A 
ENDBRANCH  23  24
ENDBRANCH   2  23
TORSDOF 6
ENDMDL
MODEL 8
REMARK VINA RESULT:      -6.6     28.392     31.124
REMARK  6 active torsions:
REMARK  status: ('A' for Active; 'I' for Inactive)
REMARK    1  A    between atoms: C1_2  and  C2_3 
REMARK       I    between atoms: C1_2  and  N4_13 
REMARK    2  A    between atoms: C2_3  and  N1_4 
REMARK    3  A    between atoms: N4_13  and  C9_14 
REMARK    4  A    between atoms: N4_13  and  C16_22 
REMARK    5  A    between atoms: C9_14  and  C10_15 
REMARK    6  A    between atoms: C19_25  and  C20_26 
ROOT
ATOM      1  O1  UNK     1       2.972   0.847 -16.722  1.00  0.00    -0.271 OA
ATOM      2  C1  UNK     1       4.115   0.818 -17.194  1.00  0.00     0.244 C 
ATOM      3  N4  UNK     1       5.178   1.548 -16.614  1.00  0.00    -0.311 N 
ENDROOT
BRANCH   3   4
ATOM      4  C9  UNK     1       4.823   2.352 -15.433  1.00  0.00     0.170 C 
BRANCH   4   5
ATOM      5  C10 UNK     1       5.269   3.800 -15.462  1.00  0.00    -0.038 A 
ATOM      6  C11 UNK     1       6.487   4.209 -14.900  1.00  0.00     0.009 A 
ATOM      7  C12 UNK     1       6.953   5.518 -15.077  1.00  0.00     0.002 A 
ATOM      8  C13 UNK     1       6.213   6.431 -15.828  1.00  0.00     0.024 A 
ATOM      9  C14 UNK     1       5.003   6.035 -16.390  1.00  0.00     0.034 A 
ATOM     10 Cl1  UNK     1       4.099   7.150 -17.343  1.00  0.00    -0.084 Cl
ATOM     11  C15 UNK     1       4.532   4.733 -16.213  1.00  0.00     0.032 A 
ENDBRANCH   4   5
ENDBRANCH   3   4
BRANCH   3  12
ATOM     12  C16 UNK     1       6.460   0.924 -16.611  1.00  0.00     0.055 A 
ATOM     13  C17 UNK     1       7.266   0.972 -17.745  1.00  0.00     0.033 A 
ATOM     14  C18 UNK     1       8.342   0.089 -17.855  1.00  0.00     0.035 A 
ATOM     15  C19 UNK     1       8.591  -0.799 -16.812  1.00  0.00     0.069 A 
ATOM     16  N7  UNK     1       7.870  -0.798 -15.664  1.00  0.00    -0.258 NA
ATOM     17  C23 UNK     1       6.830   0.055 -15.587  1.00  0.00     0.147 A 
BRANCH  15  18
ATOM     18  C20 UNK     1       9.611  -1.862 -16.968  1.00  0.00     0.031 A 
ATOM     19  C21 UNK     1      10.983  -1.788 -17.021  1.00  0.00     0.156 A 
ATOM     20  N5  UNK     1      11.571  -2.978 -17.228  1.00  0.00    -0.162 NA
ATOM     21  N6  UNK     1      10.576  -3.885 -17.303  1.00  0.00    -0.162 NA
ATOM     22  C22 UNK     1       9.424  -3.212 -17.143  1.00  0.00     0.156 A 
ENDBRANCH  15  18
ENDBRANCH   3  12
BRANCH   2  23
ATOM     23  C2  UNK     1       4.393  -0.049 -18.418  1.00  0.00     0.250 C 
BRANCH  23  24
ATOM     24  N1  UNK     1       4.076  -1.444 -18.203  1.00  0.00    -0.263 N 
ATOM     25  N2  UNK     1       4.820  -2.189 -17.357  1.00  0.00     0.006 NA
ATOM     26  N3  UNK     1       4.389  -3.439 -17.429  1.00  0.00    -0.158 NA
ATOM     27  C3  UNK     1       3.365  -3.483 -18.332  1.00  0.00     0.102 A 
ATOM     28  C4  UNK     1       2.602  -4.574 -18.780  1.00  0.00     0.035 A 
ATOM     29  C8  UNK     1       3.128  -2.209 -18.839  1.00  0.00     0.079 A 
ATOM     30  C5  UNK     1       1.600  -4.335 -19.726  1.00  0.00     0.002 A 
ATOM     31  C6  UNK     1       1.361  -3.047 -20.208  1.00  0.00     0.002 A 
ATOM     32  C7  UNK     1       2.118  -1.949 -19.774  1.00  0.00     0.033 A 
ENDBRANCH  23  24
ENDBRANCH   2  23
TORSDOF 6
ENDMDL
MODEL 9
REMARK VINA RESULT:      -6.5      3.514      6.833
REMARK  6 active torsions:
REMARK  status: ('A' for Active; 'I' for Inactive)
REMARK    1  A    between atoms: C1_2  and  C2_3 
REMARK       I    between atoms: C1_2  and  N4_13 
REMARK    2  A    between atoms: C2_3  and  N1_4 
REMARK    3  A    between atoms: N4_13  and  C9_14 
REMARK    4  A    between atoms: N4_13  and  C16_22 
REMARK    5  A    between atoms: C9_14  and  C10_15 
REMARK    6  A    between atoms: C19_25  and  C20_26 
ROOT
ATOM      1  O1  UNK     1      19.263   2.789  12.205  1.00  0.00    -0.271 OA
ATOM      2  C1  UNK     1      18.202   2.732  11.570  1.00  0.00     0.244 C 
ATOM      3  N4  UNK     1      18.159   2.941  10.172  1.00  0.00    -0.311 N 
ENDROOT
BRANCH   3   4
ATOM      4  C9  UNK     1      19.452   3.248   9.539  1.00  0.00     0.170 C 
BRANCH   4   5
ATOM      5  C10 UNK     1      19.797   4.719   9.423  1.00  0.00    -0.038 A 
ATOM      6  C11 UNK     1      19.128   5.567   8.528  1.00  0.00     0.009 A 
ATOM      7  C12 UNK     1      19.350   6.949   8.550  1.00  0.00     0.002 A 
ATOM      8  C13 UNK     1      20.236   7.504   9.473  1.00  0.00     0.024 A 
ATOM      9  C14 UNK     1      20.905   6.671  10.365  1.00  0.00     0.034 A 
ATOM     10 Cl1  UNK     1      21.979   7.353  11.527  1.00  0.00    -0.084 Cl
ATOM     11  C15 UNK     1      20.691   5.292  10.345  1.00  0.00     0.032 A 
ENDBRANCH   4   5
ENDBRANCH   3   4
BRANCH   3  12
ATOM     12  C16 UNK     1      17.250   2.133   9.430  1.00  0.00     0.055 A 
ATOM     13  C17 UNK     1      16.002   2.634   9.065  1.00  0.00     0.033 A 
ATOM     14  C18 UNK     1      15.006   1.749   8.652  1.00  0.00     0.035 A 
ATOM     15  C19 UNK     1      15.297   0.389   8.594  1.00  0.00     0.069 A 
ATOM     16  N7  UNK     1      16.532  -0.106   8.860  1.00  0.00    -0.258 NA
ATOM     17  C23 UNK     1      17.473   0.768   9.268  1.00  0.00     0.147 A 
BRANCH  15  18
ATOM     18  C20 UNK     1      14.220  -0.593   8.329  1.00  0.00     0.031 A 
ATOM     19  C21 UNK     1      14.151  -1.626   7.424  1.00  0.00     0.156 A 
ATOM     20  N5  UNK     1      12.973  -2.271   7.443  1.00  0.00    -0.162 NA
ATOM     21  N6  UNK     1      12.227  -1.671   8.394  1.00  0.00    -0.162 NA
ATOM     22  C22 UNK     1      12.979  -0.684   8.911  1.00  0.00     0.156 A 
ENDBRANCH  15  18
ENDBRANCH   3  12
BRANCH   2  23
ATOM     23  C2  UNK     1      16.910   2.401  12.310  1.00  0.00     0.250 C 
BRANCH  23  24
ATOM     24  N1  UNK     1      16.265   3.571  12.867  1.00  0.00    -0.263 N 
ATOM     25  N2  UNK     1      15.188   4.110  12.257  1.00  0.00     0.006 NA
ATOM     26  N3  UNK     1      14.866   5.219  12.904  1.00  0.00    -0.158 NA
ATOM     27  C3  UNK     1      15.752   5.383  13.931  1.00  0.00     0.102 A 
ATOM     28  C4  UNK     1      15.852   6.413  14.882  1.00  0.00     0.035 A 
ATOM     29  C8  UNK     1      16.659   4.328  13.944  1.00  0.00     0.079 A 
ATOM     30  C5  UNK     1      16.870   6.331  15.837  1.00  0.00     0.002 A 
ATOM     31  C6  UNK     1      17.758   5.255  15.849  1.00  0.00     0.002 A 
ATOM     32  C7  UNK     1      17.673   4.222  14.904  1.00  0.00     0.033 A 
ENDBRANCH  23  24
ENDBRANCH   2  23
TORSDOF 6
ENDMDL
MODEL 10
REMARK VINA RESULT:      -6.4     27.673     30.054
REMARK  6 active torsions:
REMARK  status: ('A' for Active; 'I' for Inactive)
REMARK    1  A    between atoms: C1_2  and  C2_3 
REMARK       I    between atoms: C1_2  and  N4_13 
REMARK    2  A    between atoms: C2_3  and  N1_4 
REMARK    3  A    between atoms: N4_13  and  C9_14 
REMARK    4  A    between atoms: N4_13  and  C16_22 
REMARK    5  A    between atoms: C9_14  and  C10_15 
REMARK    6  A    between atoms: C19_25  and  C20_26 
ROOT
ATOM      1  O1  UNK     1       6.593   7.960 -18.534  1.00  0.00    -0.271 OA
ATOM      2  C1  UNK     1       6.841   7.125 -17.655  1.00  0.00     0.244 C 
ATOM      3  N4  UNK     1       6.186   7.147 -16.402  1.00  0.00    -0.311 N 
ENDROOT
BRANCH   3   4
ATOM      4  C9  UNK     1       5.215   8.238 -16.215  1.00  0.00     0.170 C 
BRANCH   4   5
ATOM      5  C10 UNK     1       5.513   9.199 -15.083  1.00  0.00    -0.038 A 
ATOM      6  C11 UNK     1       4.675   9.308 -13.965  1.00  0.00     0.009 A 
ATOM      7  C12 UNK     1       5.051  10.083 -12.860  1.00  0.00     0.002 A 
ATOM      8  C13 UNK     1       6.275  10.751 -12.856  1.00  0.00     0.024 A 
ATOM      9  C14 UNK     1       7.114  10.651 -13.961  1.00  0.00     0.034 A 
ATOM     10 Cl1  UNK     1       8.640  11.451 -13.949  1.00  0.00    -0.084 Cl
ATOM     11  C15 UNK     1       6.742   9.883 -15.066  1.00  0.00     0.032 A 
ENDBRANCH   4   5
ENDBRANCH   3   4
BRANCH   3  12
ATOM     12  C16 UNK     1       5.862   5.885 -15.823  1.00  0.00     0.055 A 
ATOM     13  C17 UNK     1       6.766   5.249 -14.976  1.00  0.00     0.033 A 
ATOM     14  C18 UNK     1       6.599   3.892 -14.695  1.00  0.00     0.035 A 
ATOM     15  C19 UNK     1       5.516   3.219 -15.253  1.00  0.00     0.069 A 
ATOM     16  N7  UNK     1       4.578   3.844 -16.008  1.00  0.00    -0.258 NA
ATOM     17  C23 UNK     1       4.769   5.151 -16.275  1.00  0.00     0.147 A 
BRANCH  15  18
ATOM     18  C20 UNK     1       5.404   1.748 -15.120  1.00  0.00     0.031 A 
ATOM     19  C21 UNK     1       6.106   0.863 -14.336  1.00  0.00     0.156 A 
ATOM     20  N5  UNK     1       5.752  -0.418 -14.533  1.00  0.00    -0.162 NA
ATOM     21  N6  UNK     1       4.776  -0.402 -15.464  1.00  0.00    -0.162 NA
ATOM     22  C22 UNK     1       4.578   0.885 -15.798  1.00  0.00     0.156 A 
ENDBRANCH  15  18
ENDBRANCH   3  12
BRANCH   2  23
ATOM     23  C2  UNK     1       7.859   6.025 -17.940  1.00  0.00     0.250 C 
BRANCH  23  24
ATOM     24  N1  UNK     1       7.264   4.849 -18.538  1.00  0.00    -0.263 N 
ATOM     25  N2  UNK     1       6.242   4.971 -19.410  1.00  0.00     0.006 NA
ATOM     26  N3  UNK     1       5.820   3.754 -19.717  1.00  0.00    -0.158 NA
ATOM     27  C3  UNK     1       6.583   2.855 -19.027  1.00  0.00     0.102 A 
ATOM     28  C4  UNK     1       6.512   1.452 -18.988  1.00  0.00     0.035 A 
ATOM     29  C8  UNK     1       7.535   3.528 -18.267  1.00  0.00     0.079 A 
ATOM     30  C5  UNK     1       7.429   0.767 -18.184  1.00  0.00     0.002 A 
ATOM     31  C6  UNK     1       8.391   1.457 -17.446  1.00  0.00     0.002 A 
ATOM     32  C7  UNK     1       8.471   2.857 -17.471  1.00  0.00     0.033 A 
ENDBRANCH  23  24
ENDBRANCH   2  23
TORSDOF 6
ENDMDL
