MODEL 1
REMARK VINA RESULT:      -7.4      0.000      0.000
REMARK  6 active torsions:
REMARK  status: ('A' for Active; 'I' for Inactive)
REMARK    1  A    between atoms: C1_2  and  C2_3 
REMARK       I    between atoms: C1_2  and  N4_13 
REMARK    2  A    between atoms: C2_3  and  N1_4 
REMARK    3  A    between atoms: N4_13  and  C9_14 
REMARK    4  A    between atoms: N4_13  and  C16_22 
REMARK    5  A    between atoms: C9_14  and  C10_15 
REMARK    6  A    between atoms: C19_25  and  C20_26 
ROOT
ATOM      1  O1  UNK     1      15.427   2.597  11.102  1.00  0.00    -0.271 OA
ATOM      2  C1  UNK     1      16.525   3.125  10.893  1.00  0.00     0.244 C 
ATOM      3  N4  UNK     1      16.919   3.502   9.605  1.00  0.00    -0.312 N 
ENDROOT
BRANCH   3   4
ATOM      4  C9  UNK     1      15.978   3.321   8.488  1.00  0.00     0.170 C 
BRANCH   4   5
ATOM      5  C10 UNK     1      15.734   1.861   8.171  1.00  0.00    -0.038 A 
ATOM      6  C11 UNK     1      14.450   1.312   8.304  1.00  0.00     0.009 A 
ATOM      7  C12 UNK     1      14.244  -0.061   8.147  1.00  0.00     0.002 A 
ATOM      8  C13 UNK     1      15.315  -0.895   7.830  1.00  0.00     0.024 A 
ATOM      9  C14 UNK     1      16.582  -0.349   7.637  1.00  0.00     0.034 A 
ATOM     10 Cl1  UNK     1      17.893  -1.377   7.205  1.00  0.00    -0.084 Cl
ATOM     11  C15 UNK     1      16.795   1.020   7.803  1.00  0.00     0.032 A 
ENDBRANCH   4   5
ENDBRANCH   3   4
BRANCH   3  12
ATOM     12  C16 UNK     1      18.280   3.699   9.270  1.00  0.00     0.037 A 
ATOM     13  C17 UNK     1      19.213   2.694   9.545  1.00  0.00     0.030 A 
ATOM     14  C18 UNK     1      20.578   2.952   9.407  1.00  0.00     0.014 A 
ATOM     15  C19 UNK     1      21.016   4.209   8.978  1.00  0.00    -0.023 A 
ATOM     16  C23 UNK     1      20.075   5.180   8.616  1.00  0.00     0.014 A 
ATOM     17  C24 UNK     1      18.706   4.926   8.762  1.00  0.00     0.030 A 
BRANCH  15  18
ATOM     18  C20 UNK     1      22.476   4.525   8.979  1.00  0.00     0.013 A 
ATOM     19  C21 UNK     1      23.489   4.010   8.200  1.00  0.00     0.154 A 
ATOM     20  N5  UNK     1      24.699   4.501   8.509  1.00  0.00    -0.162 NA
ATOM     21  N6  UNK     1      24.512   5.373   9.519  1.00  0.00    -0.162 NA
ATOM     22  C22 UNK     1      23.196   5.377   9.784  1.00  0.00     0.154 A 
ENDBRANCH  15  18
ENDBRANCH   3  12
BRANCH   2  23
ATOM     23  C2  UNK     1      17.472   3.389  12.057  1.00  0.00     0.250 C 
BRANCH  23  24
ATOM     24  N1  UNK     1      17.573   4.797  12.385  1.00  0.00    -0.263 N 
ATOM     25  N2  UNK     1      16.469   5.476  12.758  1.00  0.00     0.006 NA
ATOM     26  N3  UNK     1      16.846   6.698  13.099  1.00  0.00    -0.158 NA
ATOM     27  C3  UNK     1      18.205   6.774  12.985  1.00  0.00     0.102 A 
ATOM     28  C4  UNK     1      19.083   7.835  13.256  1.00  0.00     0.035 A 
ATOM     29  C8  UNK     1      18.707   5.559  12.538  1.00  0.00     0.079 A 
ATOM     30  C5  UNK     1      20.458   7.628  13.076  1.00  0.00     0.002 A 
ATOM     31  C6  UNK     1      20.941   6.398  12.638  1.00  0.00     0.002 A 
ATOM     32  C7  UNK     1      20.078   5.329  12.359  1.00  0.00     0.033 A 
ENDBRANCH  23  24
ENDBRANCH   2  23
TORSDOF 6
ENDMDL
MODEL 2
REMARK VINA RESULT:      -7.2      2.829      7.092
REMARK  6 active torsions:
REMARK  status: ('A' for Active; 'I' for Inactive)
REMARK    1  A    between atoms: C1_2  and  C2_3 
REMARK       I    between atoms: C1_2  and  N4_13 
REMARK    2  A    between atoms: C2_3  and  N1_4 
REMARK    3  A    between atoms: N4_13  and  C9_14 
REMARK    4  A    between atoms: N4_13  and  C16_22 
REMARK    5  A    between atoms: C9_14  and  C10_15 
REMARK    6  A    between atoms: C19_25  and  C20_26 
ROOT
ATOM      1  O1  UNK     1      17.838   5.500  11.885  1.00  0.00    -0.271 OA
ATOM      2  C1  UNK     1      17.755   4.377  11.377  1.00  0.00     0.244 C 
ATOM      3  N4  UNK     1      18.216   4.128  10.080  1.00  0.00    -0.312 N 
ENDROOT
BRANCH   3   4
ATOM      4  C9  UNK     1      18.867   5.216   9.333  1.00  0.00     0.170 C 
BRANCH   4   5
ATOM      5  C10 UNK     1      20.377   5.157   9.427  1.00  0.00    -0.038 A 
ATOM      6  C11 UNK     1      21.053   5.858  10.435  1.00  0.00     0.009 A 
ATOM      7  C12 UNK     1      22.448   5.921  10.446  1.00  0.00     0.002 A 
ATOM      8  C13 UNK     1      23.184   5.261   9.462  1.00  0.00     0.024 A 
ATOM      9  C14 UNK     1      22.522   4.511   8.493  1.00  0.00     0.034 A 
ATOM     10 Cl1  UNK     1      23.435   3.663   7.305  1.00  0.00    -0.084 Cl
ATOM     11  C15 UNK     1      21.128   4.454   8.471  1.00  0.00     0.032 A 
ENDBRANCH   4   5
ENDBRANCH   3   4
BRANCH   3  12
ATOM     12  C16 UNK     1      17.765   3.016   9.330  1.00  0.00     0.037 A 
ATOM     13  C17 UNK     1      16.650   3.149   8.497  1.00  0.00     0.030 A 
ATOM     14  C18 UNK     1      16.077   2.019   7.911  1.00  0.00     0.014 A 
ATOM     15  C19 UNK     1      16.626   0.753   8.141  1.00  0.00    -0.023 A 
ATOM     16  C23 UNK     1      17.796   0.638   8.900  1.00  0.00     0.014 A 
ATOM     17  C24 UNK     1      18.367   1.769   9.495  1.00  0.00     0.030 A 
BRANCH  15  18
ATOM     18  C20 UNK     1      15.920  -0.463   7.638  1.00  0.00     0.013 A 
ATOM     19  C21 UNK     1      16.410  -1.530   6.917  1.00  0.00     0.154 A 
ATOM     20  N5  UNK     1      15.470  -2.432   6.597  1.00  0.00    -0.162 NA
ATOM     21  N6  UNK     1      14.311  -1.976   7.111  1.00  0.00    -0.162 NA
ATOM     22  C22 UNK     1      14.593  -0.814   7.722  1.00  0.00     0.154 A 
ENDBRANCH  15  18
ENDBRANCH   3  12
BRANCH   2  23
ATOM     23  C2  UNK     1      17.154   3.227  12.175  1.00  0.00     0.250 C 
BRANCH  23  24
ATOM     24  N1  UNK     1      15.760   2.994  11.853  1.00  0.00    -0.263 N 
ATOM     25  N2  UNK     1      14.959   4.039  11.560  1.00  0.00     0.006 NA
ATOM     26  N3  UNK     1      13.780   3.553  11.206  1.00  0.00    -0.158 NA
ATOM     27  C3  UNK     1      13.853   2.189  11.230  1.00  0.00     0.102 A 
ATOM     28  C4  UNK     1      12.890   1.220  10.911  1.00  0.00     0.035 A 
ATOM     29  C8  UNK     1      15.123   1.796  11.633  1.00  0.00     0.079 A 
ATOM     30  C5  UNK     1      13.248  -0.133  10.999  1.00  0.00     0.002 A 
ATOM     31  C6  UNK     1      14.530  -0.505  11.393  1.00  0.00     0.002 A 
ATOM     32  C7  UNK     1      15.504   0.449  11.719  1.00  0.00     0.033 A 
ENDBRANCH  23  24
ENDBRANCH   2  23
TORSDOF 6
ENDMDL
MODEL 3
REMARK VINA RESULT:      -7.1      2.910      6.857
REMARK  6 active torsions:
REMARK  status: ('A' for Active; 'I' for Inactive)
REMARK    1  A    between atoms: C1_2  and  C2_3 
REMARK       I    between atoms: C1_2  and  N4_13 
REMARK    2  A    between atoms: C2_3  and  N1_4 
REMARK    3  A    between atoms: N4_13  and  C9_14 
REMARK    4  A    between atoms: N4_13  and  C16_22 
REMARK    5  A    between atoms: C9_14  and  C10_15 
REMARK    6  A    between atoms: C19_25  and  C20_26 
ROOT
ATOM      1  O1  UNK     1      19.677   5.946  12.079  1.00  0.00    -0.271 OA
ATOM      2  C1  UNK     1      19.253   4.888  11.602  1.00  0.00     0.244 C 
ATOM      3  N4  UNK     1      19.387   4.598  10.240  1.00  0.00    -0.312 N 
ENDROOT
BRANCH   3   4
ATOM      4  C9  UNK     1      20.102   5.548   9.374  1.00  0.00     0.170 C 
BRANCH   4   5
ATOM      5  C10 UNK     1      21.542   5.143   9.138  1.00  0.00    -0.038 A 
ATOM      6  C11 UNK     1      21.876   4.303   8.066  1.00  0.00     0.009 A 
ATOM      7  C12 UNK     1      23.176   3.815   7.923  1.00  0.00     0.002 A 
ATOM      8  C13 UNK     1      24.164   4.183   8.836  1.00  0.00     0.024 A 
ATOM      9  C14 UNK     1      23.855   5.067   9.867  1.00  0.00     0.034 A 
ATOM     10 Cl1  UNK     1      25.087   5.553  10.967  1.00  0.00    -0.084 Cl
ATOM     11  C15 UNK     1      22.554   5.549  10.021  1.00  0.00     0.032 A 
ENDBRANCH   4   5
ENDBRANCH   3   4
BRANCH   3  12
ATOM     12  C16 UNK     1      18.567   3.639   9.599  1.00  0.00     0.037 A 
ATOM     13  C17 UNK     1      17.360   4.039   9.016  1.00  0.00     0.030 A 
ATOM     14  C18 UNK     1      16.453   3.082   8.561  1.00  0.00     0.014 A 
ATOM     15  C19 UNK     1      16.754   1.720   8.670  1.00  0.00    -0.023 A 
ATOM     16  C23 UNK     1      18.002   1.329   9.169  1.00  0.00     0.014 A 
ATOM     17  C24 UNK     1      18.910   2.288   9.634  1.00  0.00     0.030 A 
BRANCH  15  18
ATOM     18  C20 UNK     1      15.718   0.702   8.323  1.00  0.00     0.013 A 
ATOM     19  C21 UNK     1      15.866  -0.556   7.781  1.00  0.00     0.154 A 
ATOM     20  N5  UNK     1      14.700  -1.182   7.562  1.00  0.00    -0.162 NA
ATOM     21  N6  UNK     1      13.731  -0.337   7.964  1.00  0.00    -0.162 NA
ATOM     22  C22 UNK     1      14.347   0.769   8.411  1.00  0.00     0.154 A 
ENDBRANCH  15  18
ENDBRANCH   3  12
BRANCH   2  23
ATOM     23  C2  UNK     1      18.582   3.863  12.508  1.00  0.00     0.250 C 
BRANCH  23  24
ATOM     24  N1  UNK     1      17.147   4.044  12.587  1.00  0.00    -0.263 N 
ATOM     25  N2  UNK     1      16.635   5.289  12.677  1.00  0.00     0.006 NA
ATOM     26  N3  UNK     1      15.316   5.185  12.630  1.00  0.00    -0.158 NA
ATOM     27  C3  UNK     1      14.996   3.868  12.460  1.00  0.00     0.102 A 
ATOM     28  C4  UNK     1      13.746   3.246  12.322  1.00  0.00     0.035 A 
ATOM     29  C8  UNK     1      16.157   3.106  12.416  1.00  0.00     0.079 A 
ATOM     30  C5  UNK     1      13.708   1.857  12.130  1.00  0.00     0.002 A 
ATOM     31  C6  UNK     1      14.884   1.114  12.077  1.00  0.00     0.002 A 
ATOM     32  C7  UNK     1      16.141   1.719  12.217  1.00  0.00     0.033 A 
ENDBRANCH  23  24
ENDBRANCH   2  23
TORSDOF 6
ENDMDL
MODEL 4
REMARK VINA RESULT:      -7.0     27.532     29.653
REMARK  6 active torsions:
REMARK  status: ('A' for Active; 'I' for Inactive)
REMARK    1  A    between atoms: C1_2  and  C2_3 
REMARK       I    between atoms: C1_2  and  N4_13 
REMARK    2  A    between atoms: C2_3  and  N1_4 
REMARK    3  A    between atoms: N4_13  and  C9_14 
REMARK    4  A    between atoms: N4_13  and  C16_22 
REMARK    5  A    between atoms: C9_14  and  C10_15 
REMARK    6  A    between atoms: C19_25  and  C20_26 
ROOT
ATOM      1  O1  UNK     1       3.546   8.472 -17.934  1.00  0.00    -0.271 OA
ATOM      2  C1  UNK     1       3.791   7.598 -17.097  1.00  0.00     0.244 C 
ATOM      3  N4  UNK     1       4.808   6.659 -17.299  1.00  0.00    -0.312 N 
ENDROOT
BRANCH   3   4
ATOM      4  C9  UNK     1       5.639   6.757 -18.509  1.00  0.00     0.170 C 
BRANCH   4   5
ATOM      5  C10 UNK     1       7.091   7.042 -18.190  1.00  0.00    -0.038 A 
ATOM      6  C11 UNK     1       8.102   6.195 -18.667  1.00  0.00     0.009 A 
ATOM      7  C12 UNK     1       9.428   6.372 -18.264  1.00  0.00     0.002 A 
ATOM      8  C13 UNK     1       9.760   7.415 -17.400  1.00  0.00     0.024 A 
ATOM      9  C14 UNK     1       8.772   8.298 -16.971  1.00  0.00     0.034 A 
ATOM     10 Cl1  UNK     1       9.194   9.609 -15.937  1.00  0.00    -0.084 Cl
ATOM     11  C15 UNK     1       7.445   8.119 -17.362  1.00  0.00     0.032 A 
ENDBRANCH   4   5
ENDBRANCH   3   4
BRANCH   3  12
ATOM     12  C16 UNK     1       4.835   5.428 -16.601  1.00  0.00     0.037 A 
ATOM     13  C17 UNK     1       5.841   5.188 -15.660  1.00  0.00     0.030 A 
ATOM     14  C18 UNK     1       5.998   3.912 -15.115  1.00  0.00     0.014 A 
ATOM     15  C19 UNK     1       5.140   2.875 -15.496  1.00  0.00    -0.023 A 
ATOM     16  C23 UNK     1       4.078   3.145 -16.367  1.00  0.00     0.014 A 
ATOM     17  C24 UNK     1       3.925   4.421 -16.921  1.00  0.00     0.030 A 
BRANCH  15  18
ATOM     18  C20 UNK     1       5.408   1.483 -15.027  1.00  0.00     0.013 A 
ATOM     19  C21 UNK     1       5.863   1.037 -13.807  1.00  0.00     0.154 A 
ATOM     20  N5  UNK     1       6.029  -0.294 -13.754  1.00  0.00    -0.162 NA
ATOM     21  N6  UNK     1       5.678  -0.771 -14.964  1.00  0.00    -0.162 NA
ATOM     22  C22 UNK     1       5.313   0.288 -15.703  1.00  0.00     0.154 A 
ENDBRANCH  15  18
ENDBRANCH   3  12
BRANCH   2  23
ATOM     23  C2  UNK     1       2.986   7.539 -15.804  1.00  0.00     0.250 C 
BRANCH  23  24
ATOM     24  N1  UNK     1       3.072   8.766 -15.037  1.00  0.00    -0.263 N 
ATOM     25  N2  UNK     1       1.950   9.462 -14.763  1.00  0.00     0.006 NA
ATOM     26  N3  UNK     1       2.286  10.470 -13.973  1.00  0.00    -0.158 NA
ATOM     27  C3  UNK     1       3.623  10.379 -13.709  1.00  0.00     0.102 A 
ATOM     28  C4  UNK     1       4.449  11.182 -12.907  1.00  0.00     0.035 A 
ATOM     29  C8  UNK     1       4.158   9.282 -14.372  1.00  0.00     0.079 A 
ATOM     30  C5  UNK     1       5.803  10.839 -12.788  1.00  0.00     0.002 A 
ATOM     31  C6  UNK     1       6.317   9.729 -13.452  1.00  0.00     0.002 A 
ATOM     32  C7  UNK     1       5.508   8.918 -14.261  1.00  0.00     0.033 A 
ENDBRANCH  23  24
ENDBRANCH   2  23
TORSDOF 6
ENDMDL
MODEL 5
REMARK VINA RESULT:      -7.0      2.643      6.379
REMARK  6 active torsions:
REMARK  status: ('A' for Active; 'I' for Inactive)
REMARK    1  A    between atoms: C1_2  and  C2_3 
REMARK       I    between atoms: C1_2  and  N4_13 
REMARK    2  A    between atoms: C2_3  and  N1_4 
REMARK    3  A    between atoms: N4_13  and  C9_14 
REMARK    4  A    between atoms: N4_13  and  C16_22 
REMARK    5  A    between atoms: C9_14  and  C10_15 
REMARK    6  A    between atoms: C19_25  and  C20_26 
ROOT
ATOM      1  O1  UNK     1      19.912   6.143  11.782  1.00  0.00    -0.271 OA
ATOM      2  C1  UNK     1      19.449   5.071  11.379  1.00  0.00     0.244 C 
ATOM      3  N4  UNK     1      19.609   4.662  10.051  1.00  0.00    -0.312 N 
ENDROOT
BRANCH   3   4
ATOM      4  C9  UNK     1      20.397   5.500   9.135  1.00  0.00     0.170 C 
BRANCH   4   5
ATOM      5  C10 UNK     1      21.818   5.003   8.976  1.00  0.00    -0.038 A 
ATOM      6  C11 UNK     1      22.849   5.536   9.763  1.00  0.00     0.009 A 
ATOM      7  C12 UNK     1      24.180   5.183   9.528  1.00  0.00     0.002 A 
ATOM      8  C13 UNK     1      24.491   4.273   8.519  1.00  0.00     0.024 A 
ATOM      9  C14 UNK     1      23.469   3.692   7.774  1.00  0.00     0.034 A 
ATOM     10 Cl1  UNK     1      23.855   2.536   6.557  1.00  0.00    -0.084 Cl
ATOM     11  C15 UNK     1      22.138   4.049   7.997  1.00  0.00     0.032 A 
ENDBRANCH   4   5
ENDBRANCH   3   4
BRANCH   3  12
ATOM     12  C16 UNK     1      18.759   3.694   9.463  1.00  0.00     0.037 A 
ATOM     13  C17 UNK     1      17.626   4.107   8.755  1.00  0.00     0.030 A 
ATOM     14  C18 UNK     1      16.678   3.168   8.345  1.00  0.00     0.014 A 
ATOM     15  C19 UNK     1      16.867   1.811   8.626  1.00  0.00    -0.023 A 
ATOM     16  C23 UNK     1      18.047   1.394   9.252  1.00  0.00     0.014 A 
ATOM     17  C24 UNK     1      18.994   2.336   9.672  1.00  0.00     0.030 A 
BRANCH  15  18
ATOM     18  C20 UNK     1      15.780   0.833   8.320  1.00  0.00     0.013 A 
ATOM     19  C21 UNK     1      15.858  -0.427   7.770  1.00  0.00     0.154 A 
ATOM     20  N5  UNK     1      14.661  -1.009   7.598  1.00  0.00    -0.162 NA
ATOM     21  N6  UNK     1      13.742  -0.129   8.043  1.00  0.00    -0.162 NA
ATOM     22  C22 UNK     1      14.417   0.951   8.466  1.00  0.00     0.154 A 
ENDBRANCH  15  18
ENDBRANCH   3  12
BRANCH   2  23
ATOM     23  C2  UNK     1      18.699   4.159  12.343  1.00  0.00     0.250 C 
BRANCH  23  24
ATOM     24  N1  UNK     1      17.488   4.767  12.856  1.00  0.00    -0.263 N 
ATOM     25  N2  UNK     1      16.322   4.584  12.203  1.00  0.00     0.006 NA
ATOM     26  N3  UNK     1      15.366   5.147  12.925  1.00  0.00    -0.158 NA
ATOM     27  C3  UNK     1      15.928   5.647  14.065  1.00  0.00     0.102 A 
ATOM     28  C4  UNK     1      15.340   6.304  15.157  1.00  0.00     0.035 A 
ATOM     29  C8  UNK     1      17.296   5.407  14.057  1.00  0.00     0.079 A 
ATOM     30  C5  UNK     1      16.162   6.691  16.226  1.00  0.00     0.002 A 
ATOM     31  C6  UNK     1      17.530   6.430  16.202  1.00  0.00     0.002 A 
ATOM     32  C7  UNK     1      18.133   5.779  15.118  1.00  0.00     0.033 A 
ENDBRANCH  23  24
ENDBRANCH   2  23
TORSDOF 6
ENDMDL
MODEL 6
REMARK VINA RESULT:      -7.0     28.185     30.068
REMARK  6 active torsions:
REMARK  status: ('A' for Active; 'I' for Inactive)
REMARK    1  A    between atoms: C1_2  and  C2_3 
REMARK       I    between atoms: C1_2  and  N4_13 
REMARK    2  A    between atoms: C2_3  and  N1_4 
REMARK    3  A    between atoms: N4_13  and  C9_14 
REMARK    4  A    between atoms: N4_13  and  C16_22 
REMARK    5  A    between atoms: C9_14  and  C10_15 
REMARK    6  A    between atoms: C19_25  and  C20_26 
ROOT
ATOM      1  O1  UNK     1       7.679   8.580 -17.491  1.00  0.00    -0.271 OA
ATOM      2  C1  UNK     1       7.065   7.520 -17.334  1.00  0.00     0.244 C 
ATOM      3  N4  UNK     1       6.328   7.270 -16.171  1.00  0.00    -0.312 N 
ENDROOT
BRANCH   3   4
ATOM      4  C9  UNK     1       6.237   8.320 -15.144  1.00  0.00     0.170 C 
BRANCH   4   5
ATOM      5  C10 UNK     1       4.818   8.802 -14.936  1.00  0.00    -0.038 A 
ATOM      6  C11 UNK     1       4.400   9.256 -13.677  1.00  0.00     0.009 A 
ATOM      7  C12 UNK     1       3.060   9.572 -13.443  1.00  0.00     0.002 A 
ATOM      8  C13 UNK     1       2.127   9.462 -14.474  1.00  0.00     0.024 A 
ATOM      9  C14 UNK     1       2.545   9.071 -15.744  1.00  0.00     0.034 A 
ATOM     10 Cl1  UNK     1       1.398   8.977 -17.024  1.00  0.00    -0.084 Cl
ATOM     11  C15 UNK     1       3.881   8.744 -15.980  1.00  0.00     0.032 A 
ENDBRANCH   4   5
ENDBRANCH   3   4
BRANCH   3  12
ATOM     12  C16 UNK     1       5.984   5.955 -15.775  1.00  0.00     0.037 A 
ATOM     13  C17 UNK     1       6.850   5.231 -14.950  1.00  0.00     0.030 A 
ATOM     14  C18 UNK     1       6.623   3.874 -14.718  1.00  0.00     0.014 A 
ATOM     15  C19 UNK     1       5.519   3.238 -15.296  1.00  0.00    -0.023 A 
ATOM     16  C23 UNK     1       4.605   3.988 -16.044  1.00  0.00     0.014 A 
ATOM     17  C24 UNK     1       4.837   5.348 -16.285  1.00  0.00     0.030 A 
BRANCH  15  18
ATOM     18  C20 UNK     1       5.367   1.758 -15.169  1.00  0.00     0.013 A 
ATOM     19  C21 UNK     1       5.953   0.885 -14.279  1.00  0.00     0.154 A 
ATOM     20  N5  UNK     1       5.615  -0.396 -14.487  1.00  0.00    -0.162 NA
ATOM     21  N6  UNK     1       4.777  -0.403 -15.542  1.00  0.00    -0.162 NA
ATOM     22  C22 UNK     1       4.639   0.874 -15.932  1.00  0.00     0.154 A 
ENDBRANCH  15  18
ENDBRANCH   3  12
BRANCH   2  23
ATOM     23  C2  UNK     1       7.089   6.459 -18.428  1.00  0.00     0.250 C 
BRANCH  23  24
ATOM     24  N1  UNK     1       8.034   5.396 -18.153  1.00  0.00    -0.263 N 
ATOM     25  N2  UNK     1       9.213   5.687 -17.565  1.00  0.00     0.006 NA
ATOM     26  N3  UNK     1       9.838   4.543 -17.333  1.00  0.00    -0.158 NA
ATOM     27  C3  UNK     1       9.025   3.522 -17.734  1.00  0.00     0.102 A 
ATOM     28  C4  UNK     1       9.213   2.132 -17.674  1.00  0.00     0.035 A 
ATOM     29  C8  UNK     1       7.847   4.039 -18.257  1.00  0.00     0.079 A 
ATOM     30  C5  UNK     1       8.186   1.298 -18.139  1.00  0.00     0.002 A 
ATOM     31  C6  UNK     1       7.007   1.837 -18.649  1.00  0.00     0.002 A 
ATOM     32  C7  UNK     1       6.805   3.222 -18.720  1.00  0.00     0.033 A 
ENDBRANCH  23  24
ENDBRANCH   2  23
TORSDOF 6
ENDMDL
MODEL 7
REMARK VINA RESULT:      -6.9      3.404      7.364
REMARK  6 active torsions:
REMARK  status: ('A' for Active; 'I' for Inactive)
REMARK    1  A    between atoms: C1_2  and  C2_3 
REMARK       I    between atoms: C1_2  and  N4_13 
REMARK    2  A    between atoms: C2_3  and  N1_4 
REMARK    3  A    between atoms: N4_13  and  C9_14 
REMARK    4  A    between atoms: N4_13  and  C16_22 
REMARK    5  A    between atoms: C9_14  and  C10_15 
REMARK    6  A    between atoms: C19_25  and  C20_26 
ROOT
ATOM      1  O1  UNK     1      14.973   5.173  12.909  1.00  0.00    -0.271 OA
ATOM      2  C1  UNK     1      15.100   4.158  12.215  1.00  0.00     0.244 C 
ATOM      3  N4  UNK     1      16.327   3.496  12.111  1.00  0.00    -0.312 N 
ENDROOT
BRANCH   3   4
ATOM      4  C9  UNK     1      17.472   3.986  12.894  1.00  0.00     0.170 C 
BRANCH   4   5
ATOM      5  C10 UNK     1      18.209   5.110  12.197  1.00  0.00    -0.038 A 
ATOM      6  C11 UNK     1      18.076   6.432  12.647  1.00  0.00     0.009 A 
ATOM      7  C12 UNK     1      18.640   7.488  11.928  1.00  0.00     0.002 A 
ATOM      8  C13 UNK     1      19.366   7.232  10.766  1.00  0.00     0.024 A 
ATOM      9  C14 UNK     1      19.554   5.917  10.346  1.00  0.00     0.034 A 
ATOM     10 Cl1  UNK     1      20.487   5.602   8.933  1.00  0.00    -0.084 Cl
ATOM     11  C15 UNK     1      18.984   4.859  11.054  1.00  0.00     0.032 A 
ENDBRANCH   4   5
ENDBRANCH   3   4
BRANCH   3  12
ATOM     12  C16 UNK     1      16.615   2.625  11.033  1.00  0.00     0.037 A 
ATOM     13  C17 UNK     1      16.430   3.067   9.718  1.00  0.00     0.030 A 
ATOM     14  C18 UNK     1      16.515   2.162   8.659  1.00  0.00     0.014 A 
ATOM     15  C19 UNK     1      16.803   0.815   8.907  1.00  0.00    -0.023 A 
ATOM     16  C23 UNK     1      17.079   0.399  10.214  1.00  0.00     0.014 A 
ATOM     17  C24 UNK     1      16.984   1.304  11.278  1.00  0.00     0.030 A 
BRANCH  15  18
ATOM     18  C20 UNK     1      16.742  -0.173   7.789  1.00  0.00     0.013 A 
ATOM     19  C21 UNK     1      15.649  -0.724   7.159  1.00  0.00     0.154 A 
ATOM     20  N5  UNK     1      15.974  -1.620   6.214  1.00  0.00    -0.162 NA
ATOM     21  N6  UNK     1      17.319  -1.683   6.193  1.00  0.00    -0.162 NA
ATOM     22  C22 UNK     1      17.758  -0.823   7.126  1.00  0.00     0.154 A 
ENDBRANCH  15  18
ENDBRANCH   3  12
BRANCH   2  23
ATOM     23  C2  UNK     1      13.898   3.598  11.464  1.00  0.00     0.250 C 
BRANCH  23  24
ATOM     24  N1  UNK     1      13.560   2.252  11.879  1.00  0.00    -0.263 N 
ATOM     25  N2  UNK     1      13.371   1.984  13.187  1.00  0.00     0.006 NA
ATOM     26  N3  UNK     1      12.975   0.725  13.286  1.00  0.00    -0.158 NA
ATOM     27  C3  UNK     1      12.868   0.210  12.026  1.00  0.00     0.102 A 
ATOM     28  C4  UNK     1      12.460  -1.062  11.594  1.00  0.00     0.035 A 
ATOM     29  C8  UNK     1      13.227   1.174  11.094  1.00  0.00     0.079 A 
ATOM     30  C5  UNK     1      12.415  -1.318  10.216  1.00  0.00     0.002 A 
ATOM     31  C6  UNK     1      12.768  -0.333   9.298  1.00  0.00     0.002 A 
ATOM     32  C7  UNK     1      13.182   0.941   9.712  1.00  0.00     0.033 A 
ENDBRANCH  23  24
ENDBRANCH   2  23
TORSDOF 6
ENDMDL
MODEL 8
REMARK VINA RESULT:      -6.9     29.289     32.509
REMARK  6 active torsions:
REMARK  status: ('A' for Active; 'I' for Inactive)
REMARK    1  A    between atoms: C1_2  and  C2_3 
REMARK       I    between atoms: C1_2  and  N4_13 
REMARK    2  A    between atoms: C2_3  and  N1_4 
REMARK    3  A    between atoms: N4_13  and  C9_14 
REMARK    4  A    between atoms: N4_13  and  C16_22 
REMARK    5  A    between atoms: C9_14  and  C10_15 
REMARK    6  A    between atoms: C19_25  and  C20_26 
ROOT
ATOM      1  O1  UNK     1       6.498   0.633 -16.812  1.00  0.00    -0.271 OA
ATOM      2  C1  UNK     1       5.359   0.890 -17.216  1.00  0.00     0.244 C 
ATOM      3  N4  UNK     1       4.550   1.828 -16.566  1.00  0.00    -0.312 N 
ENDROOT
BRANCH   3   4
ATOM      4  C9  UNK     1       5.093   2.564 -15.414  1.00  0.00     0.170 C 
BRANCH   4   5
ATOM      5  C10 UNK     1       5.647   3.917 -15.803  1.00  0.00    -0.038 A 
ATOM      6  C11 UNK     1       4.792   5.019 -15.948  1.00  0.00     0.009 A 
ATOM      7  C12 UNK     1       5.274   6.234 -16.440  1.00  0.00     0.002 A 
ATOM      8  C13 UNK     1       6.622   6.369 -16.767  1.00  0.00     0.024 A 
ATOM      9  C14 UNK     1       7.490   5.298 -16.569  1.00  0.00     0.034 A 
ATOM     10 Cl1  UNK     1       9.163   5.481 -16.935  1.00  0.00    -0.084 Cl
ATOM     11  C15 UNK     1       7.012   4.078 -16.088  1.00  0.00     0.032 A 
ENDBRANCH   4   5
ENDBRANCH   3   4
BRANCH   3  12
ATOM     12  C16 UNK     1       3.143   1.835 -16.725  1.00  0.00     0.037 A 
ATOM     13  C17 UNK     1       2.548   2.761 -17.588  1.00  0.00     0.030 A 
ATOM     14  C18 UNK     1       1.161   2.912 -17.601  1.00  0.00     0.014 A 
ATOM     15  C19 UNK     1       0.360   2.127 -16.765  1.00  0.00    -0.023 A 
ATOM     16  C23 UNK     1       0.954   1.138 -15.972  1.00  0.00     0.014 A 
ATOM     17  C24 UNK     1       2.347   0.991 -15.951  1.00  0.00     0.030 A 
BRANCH  15  18
ATOM     18  C20 UNK     1      -1.105   2.399 -16.673  1.00  0.00     0.013 A 
ATOM     19  C21 UNK     1      -1.979   2.175 -15.632  1.00  0.00     0.154 A 
ATOM     20  N5  UNK     1      -3.247   2.507 -15.921  1.00  0.00    -0.162 NA
ATOM     21  N6  UNK     1      -3.243   2.970 -17.186  1.00  0.00    -0.162 NA
ATOM     22  C22 UNK     1      -1.973   2.902 -17.616  1.00  0.00     0.154 A 
ENDBRANCH  15  18
ENDBRANCH   3  12
BRANCH   2  23
ATOM     23  C2  UNK     1       4.818   0.190 -18.457  1.00  0.00     0.250 C 
BRANCH  23  24
ATOM     24  N1  UNK     1       4.548  -1.216 -18.230  1.00  0.00    -0.263 N 
ATOM     25  N2  UNK     1       5.211  -1.874 -17.257  1.00  0.00     0.006 NA
ATOM     26  N3  UNK     1       4.711  -3.098 -17.188  1.00  0.00    -0.158 NA
ATOM     27  C3  UNK     1       3.693  -3.196 -18.094  1.00  0.00     0.102 A 
ATOM     28  C4  UNK     1       2.834  -4.267 -18.385  1.00  0.00     0.035 A 
ATOM     29  C8  UNK     1       3.554  -1.993 -18.774  1.00  0.00     0.079 A 
ATOM     30  C5  UNK     1       1.841  -4.082 -19.358  1.00  0.00     0.002 A 
ATOM     31  C6  UNK     1       1.712  -2.864 -20.020  1.00  0.00     0.002 A 
ATOM     32  C7  UNK     1       2.564  -1.786 -19.745  1.00  0.00     0.033 A 
ENDBRANCH  23  24
ENDBRANCH   2  23
TORSDOF 6
ENDMDL
MODEL 9
REMARK VINA RESULT:      -6.8      2.358      6.344
REMARK  6 active torsions:
REMARK  status: ('A' for Active; 'I' for Inactive)
REMARK    1  A    between atoms: C1_2  and  C2_3 
REMARK       I    between atoms: C1_2  and  N4_13 
REMARK    2  A    between atoms: C2_3  and  N1_4 
REMARK    3  A    between atoms: N4_13  and  C9_14 
REMARK    4  A    between atoms: N4_13  and  C16_22 
REMARK    5  A    between atoms: C9_14  and  C10_15 
REMARK    6  A    between atoms: C19_25  and  C20_26 
ROOT
ATOM      1  O1  UNK     1      15.170   3.737  10.915  1.00  0.00    -0.271 OA
ATOM      2  C1  UNK     1      16.174   3.435  10.261  1.00  0.00     0.244 C 
ATOM      3  N4  UNK     1      17.434   3.343  10.861  1.00  0.00    -0.312 N 
ENDROOT
BRANCH   3   4
ATOM      4  C9  UNK     1      17.550   3.551  12.313  1.00  0.00     0.170 C 
BRANCH   4   5
ATOM      5  C10 UNK     1      18.181   4.883  12.656  1.00  0.00    -0.038 A 
ATOM      6  C11 UNK     1      17.434   6.067  12.563  1.00  0.00     0.009 A 
ATOM      7  C12 UNK     1      18.044   7.310  12.744  1.00  0.00     0.002 A 
ATOM      8  C13 UNK     1      19.403   7.382  13.046  1.00  0.00     0.024 A 
ATOM      9  C14 UNK     1      20.139   6.209  13.200  1.00  0.00     0.034 A 
ATOM     10 Cl1  UNK     1      21.808   6.302  13.614  1.00  0.00    -0.084 Cl
ATOM     11  C15 UNK     1      19.537   4.965  13.010  1.00  0.00     0.032 A 
ENDBRANCH   4   5
ENDBRANCH   3   4
BRANCH   3  12
ATOM     12  C16 UNK     1      18.627   3.426  10.105  1.00  0.00     0.037 A 
ATOM     13  C17 UNK     1      19.504   2.337  10.073  1.00  0.00     0.030 A 
ATOM     14  C18 UNK     1      20.770   2.475   9.501  1.00  0.00     0.014 A 
ATOM     15  C19 UNK     1      21.158   3.698   8.942  1.00  0.00    -0.023 A 
ATOM     16  C23 UNK     1      20.243   4.755   8.894  1.00  0.00     0.014 A 
ATOM     17  C24 UNK     1      18.976   4.620   9.475  1.00  0.00     0.030 A 
BRANCH  15  18
ATOM     18  C20 UNK     1      22.563   3.883   8.471  1.00  0.00     0.013 A 
ATOM     19  C21 UNK     1      23.183   3.403   7.339  1.00  0.00     0.154 A 
ATOM     20  N5  UNK     1      24.480   3.738   7.259  1.00  0.00    -0.162 NA
ATOM     21  N6  UNK     1      24.756   4.464   8.359  1.00  0.00    -0.162 NA
ATOM     22  C22 UNK     1      23.616   4.543   9.064  1.00  0.00     0.154 A 
ENDBRANCH  15  18
ENDBRANCH   3  12
BRANCH   2  23
ATOM     23  C2  UNK     1      16.048   3.140   8.771  1.00  0.00     0.250 C 
BRANCH  23  24
ATOM     24  N1  UNK     1      15.377   1.883   8.506  1.00  0.00    -0.263 N 
ATOM     25  N2  UNK     1      14.029   1.834   8.502  1.00  0.00     0.006 NA
ATOM     26  N3  UNK     1      13.674   0.612   8.137  1.00  0.00    -0.158 NA
ATOM     27  C3  UNK     1      14.807  -0.100   7.862  1.00  0.00     0.102 A 
ATOM     28  C4  UNK     1      14.966  -1.419   7.411  1.00  0.00     0.035 A 
ATOM     29  C8  UNK     1      15.924   0.697   8.079  1.00  0.00     0.079 A 
ATOM     30  C5  UNK     1      16.265  -1.895   7.180  1.00  0.00     0.002 A 
ATOM     31  C6  UNK     1      17.371  -1.076   7.393  1.00  0.00     0.002 A 
ATOM     32  C7  UNK     1      17.230   0.243   7.847  1.00  0.00     0.033 A 
ENDBRANCH  23  24
ENDBRANCH   2  23
TORSDOF 6
ENDMDL
MODEL 10
REMARK VINA RESULT:      -6.8      3.337      6.417
REMARK  6 active torsions:
REMARK  status: ('A' for Active; 'I' for Inactive)
REMARK    1  A    between atoms: C1_2  and  C2_3 
REMARK       I    between atoms: C1_2  and  N4_13 
REMARK    2  A    between atoms: C2_3  and  N1_4 
REMARK    3  A    between atoms: N4_13  and  C9_14 
REMARK    4  A    between atoms: N4_13  and  C16_22 
REMARK    5  A    between atoms: C9_14  and  C10_15 
REMARK    6  A    between atoms: C19_25  and  C20_26 
ROOT
ATOM      1  O1  UNK     1      17.603   3.142   8.837  1.00  0.00    -0.271 OA
ATOM      2  C1  UNK     1      17.035   2.896   9.906  1.00  0.00     0.244 C 
ATOM      3  N4  UNK     1      15.696   2.493   9.944  1.00  0.00    -0.312 N 
ENDROOT
BRANCH   3   4
ATOM      4  C9  UNK     1      14.972   2.301   8.677  1.00  0.00     0.170 C 
BRANCH   4   5
ATOM      5  C10 UNK     1      14.864   0.841   8.290  1.00  0.00    -0.038 A 
ATOM      6  C11 UNK     1      15.863   0.238   7.511  1.00  0.00     0.009 A 
ATOM      7  C12 UNK     1      15.704  -1.065   7.035  1.00  0.00     0.002 A 
ATOM      8  C13 UNK     1      14.556  -1.789   7.355  1.00  0.00     0.024 A 
ATOM      9  C14 UNK     1      13.588  -1.220   8.178  1.00  0.00     0.034 A 
ATOM     10 Cl1  UNK     1      12.192  -2.133   8.605  1.00  0.00    -0.084 Cl
ATOM     11  C15 UNK     1      13.736   0.086   8.648  1.00  0.00     0.032 A 
ENDBRANCH   4   5
ENDBRANCH   3   4
BRANCH   3  12
ATOM     12  C16 UNK     1      14.913   2.618  11.116  1.00  0.00     0.037 A 
ATOM     13  C17 UNK     1      14.288   3.836  11.405  1.00  0.00     0.030 A 
ATOM     14  C18 UNK     1      13.684   4.034  12.647  1.00  0.00     0.014 A 
ATOM     15  C19 UNK     1      13.687   3.010  13.601  1.00  0.00    -0.023 A 
ATOM     16  C23 UNK     1      14.231   1.763  13.272  1.00  0.00     0.014 A 
ATOM     17  C24 UNK     1      14.845   1.566  12.029  1.00  0.00     0.030 A 
BRANCH  15  18
ATOM     18  C20 UNK     1      13.176   3.279  14.978  1.00  0.00     0.013 A 
ATOM     19  C21 UNK     1      13.502   2.675  16.172  1.00  0.00     0.154 A 
ATOM     20  N5  UNK     1      12.805   3.150  17.217  1.00  0.00    -0.162 NA
ATOM     21  N6  UNK     1      11.986   4.101  16.729  1.00  0.00    -0.162 NA
ATOM     22  C22 UNK     1      12.216   4.167  15.408  1.00  0.00     0.154 A 
ENDBRANCH  15  18
ENDBRANCH   3  12
BRANCH   2  23
ATOM     23  C2  UNK     1      17.801   3.016  11.217  1.00  0.00     0.250 C 
BRANCH  23  24
ATOM     24  N1  UNK     1      17.888   4.384  11.689  1.00  0.00    -0.263 N 
ATOM     25  N2  UNK     1      18.256   5.362  10.835  1.00  0.00     0.006 NA
ATOM     26  N3  UNK     1      18.157   6.514  11.479  1.00  0.00    -0.158 NA
ATOM     27  C3  UNK     1      17.677   6.264  12.733  1.00  0.00     0.102 A 
ATOM     28  C4  UNK     1      17.369   7.144  13.782  1.00  0.00     0.035 A 
ATOM     29  C8  UNK     1      17.482   4.899  12.896  1.00  0.00     0.079 A 
ATOM     30  C5  UNK     1      16.856   6.611  14.974  1.00  0.00     0.002 A 
ATOM     31  C6  UNK     1      16.657   5.240  15.112  1.00  0.00     0.002 A 
ATOM     32  C7  UNK     1      16.963   4.346  14.076  1.00  0.00     0.033 A 
ENDBRANCH  23  24
ENDBRANCH   2  23
TORSDOF 6
ENDMDL
