REMARK  6 active torsions:
REMARK  status: ('A' for Active; 'I' for Inactive)
REMARK    1  A    between atoms: C1_2  and  C2_3 
REMARK       I    between atoms: C1_2  and  N4_13 
REMARK    2  A    between atoms: C2_3  and  N1_4 
REMARK    3  A    between atoms: N4_13  and  C9_14 
REMARK    4  A    between atoms: N4_13  and  C16_22 
REMARK    5  A    between atoms: C9_14  and  C10_15 
REMARK    6  A    between atoms: C19_25  and  C20_26 
ROOT
ATOM      1  O1  UNK     1      56.517  24.699 -17.347  1.00  0.00    -0.271 OA
ATOM      2  C1  UNK     1      56.451  23.668 -18.024  1.00  0.00     0.244 C 
ATOM      3  N4  UNK     1      55.273  22.917 -18.095  1.00  0.00    -0.312 N 
ENDROOT
BRANCH   3   4
ATOM      4  C9  UNK     1      54.073  23.403 -17.396  1.00  0.00     0.170 C 
BRANCH   4   5
ATOM      5  C10 UNK     1      53.230  24.314 -18.262  1.00  0.00    -0.038 A 
ATOM      6  C11 UNK     1      52.187  23.789 -19.039  1.00  0.00     0.009 A 
ATOM      7  C12 UNK     1      51.496  24.599 -19.943  1.00  0.00     0.002 A 
ATOM      8  C13 UNK     1      51.823  25.949 -20.061  1.00  0.00     0.024 A 
ATOM      9  C14 UNK     1      52.816  26.492 -19.249  1.00  0.00     0.034 A 
ATOM     10 Cl1  UNK     1      53.188  28.169 -19.368  1.00  0.00    -0.084 Cl
ATOM     11  C15 UNK     1      53.517  25.685 -18.352  1.00  0.00     0.032 A 
ENDBRANCH   4   5
ENDBRANCH   3   4
BRANCH   3  12
ATOM     12  C16 UNK     1      55.279  21.557 -18.487  1.00  0.00     0.037 A 
ATOM     13  C17 UNK     1      56.037  20.631 -17.763  1.00  0.00     0.030 A 
ATOM     14  C18 UNK     1      56.212  19.336 -18.253  1.00  0.00     0.014 A 
ATOM     15  C19 UNK     1      55.616  18.955 -19.460  1.00  0.00    -0.023 A 
ATOM     16  C23 UNK     1      54.783  19.857 -20.132  1.00  0.00     0.014 A 
ATOM     17  C24 UNK     1      54.614  21.159 -19.646  1.00  0.00     0.030 A 
BRANCH  15  18
ATOM     18  C20 UNK     1      55.931  17.621 -20.053  1.00  0.00     0.013 A 
ATOM     19  C21 UNK     1      56.782  16.636 -19.603  1.00  0.00     0.154 A 
ATOM     20  N5  UNK     1      56.849  15.575 -20.422  1.00  0.00    -0.162 NA
ATOM     21  N6  UNK     1      56.025  15.837 -21.455  1.00  0.00    -0.162 NA
ATOM     22  C22 UNK     1      55.490  17.046 -21.223  1.00  0.00     0.154 A 
ENDBRANCH  15  18
ENDBRANCH   3  12
BRANCH   2  23
ATOM     23  C2  UNK     1      57.667  23.201 -18.815  1.00  0.00     0.250 C 
BRANCH  23  24
ATOM     24  N1  UNK     1      57.666  23.690 -20.179  1.00  0.00    -0.263 N 
ATOM     25  N2  UNK     1      57.795  25.012 -20.414  1.00  0.00     0.006 NA
ATOM     26  N3  UNK     1      57.868  25.181 -21.725  1.00  0.00    -0.158 NA
ATOM     27  C3  UNK     1      57.833  23.951 -22.318  1.00  0.00     0.102 A 
ATOM     28  C4  UNK     1      57.910  23.591 -23.672  1.00  0.00     0.035 A 
ATOM     29  C8  UNK     1      57.715  22.966 -21.346  1.00  0.00     0.079 A 
ATOM     30  C5  UNK     1      57.877  22.229 -24.005  1.00  0.00     0.002 A 
ATOM     31  C6  UNK     1      57.770  21.257 -23.014  1.00  0.00     0.002 A 
ATOM     32  C7  UNK     1      57.688  21.599 -21.657  1.00  0.00     0.033 A 
ENDBRANCH  23  24
ENDBRANCH   2  23
TORSDOF 6
