MODEL 1
REMARK VINA RESULT:      -7.2      0.000      0.000
REMARK  6 active torsions:
REMARK  status: ('A' for Active; 'I' for Inactive)
REMARK    1  A    between atoms: C1_2  and  C2_3 
REMARK       I    between atoms: C1_2  and  N4_13 
REMARK    2  A    between atoms: C2_3  and  N1_4 
REMARK    3  A    between atoms: N4_13  and  C9_14 
REMARK    4  A    between atoms: N4_13  and  C16_22 
REMARK    5  A    between atoms: C9_14  and  C10_15 
REMARK    6  A    between atoms: C19_25  and  C20_26 
ROOT
ATOM      1  O1  UNK     1      15.464   2.508  11.413  1.00  0.00    -0.271 OA
ATOM      2  C1  UNK     1      16.548   3.049  11.157  1.00  0.00     0.244 C 
ATOM      3  N4  UNK     1      16.912   3.377   9.848  1.00  0.00    -0.312 N 
ENDROOT
BRANCH   3   4
ATOM      4  C9  UNK     1      15.979   3.076   8.754  1.00  0.00     0.170 C 
BRANCH   4   5
ATOM      5  C10 UNK     1      15.760   1.608   8.460  1.00  0.00    -0.038 A 
ATOM      6  C11 UNK     1      16.706   0.849   7.755  1.00  0.00     0.009 A 
ATOM      7  C12 UNK     1      16.419  -0.457   7.345  1.00  0.00     0.002 A 
ATOM      8  C13 UNK     1      15.179  -1.024   7.635  1.00  0.00     0.024 A 
ATOM      9  C14 UNK     1      14.240  -0.291   8.356  1.00  0.00     0.034 A 
ATOM     10 Cl1  UNK     1      12.701  -0.979   8.697  1.00  0.00    -0.084 Cl
ATOM     11  C15 UNK     1      14.525   1.011   8.773  1.00  0.00     0.032 A 
ENDBRANCH   4   5
ENDBRANCH   3   4
BRANCH   3  12
ATOM     12  C16 UNK     1      18.263   3.575   9.469  1.00  0.00     0.037 A 
ATOM     13  C17 UNK     1      19.210   2.566   9.687  1.00  0.00     0.030 A 
ATOM     14  C18 UNK     1      20.566   2.818   9.476  1.00  0.00     0.016 A 
ATOM     15  C19 UNK     1      20.978   4.078   9.032  1.00  0.00    -0.006 A 
ATOM     16  C23 UNK     1      20.018   5.049   8.714  1.00  0.00     0.016 A 
ATOM     17  C24 UNK     1      18.658   4.795   8.920  1.00  0.00     0.030 A 
BRANCH  15  18
ATOM     18  C20 UNK     1      22.437   4.428   8.975  1.00  0.00     0.086 A 
ATOM     19  C21 UNK     1      23.400   3.921   8.111  1.00  0.00     0.150 A 
ATOM     20  N5  UNK     1      24.598   4.450   8.431  1.00  0.00    -0.252 NA
ATOM     21  C22 UNK     1      24.386   5.280   9.472  1.00  0.00     0.233 A 
ATOM     22  N6  UNK     1      23.082   5.273   9.819  1.00  0.00    -0.240 NA
ENDBRANCH  15  18
ENDBRANCH   3  12
BRANCH   2  23
ATOM     23  C2  UNK     1      17.502   3.385  12.295  1.00  0.00     0.250 C 
BRANCH  23  24
ATOM     24  N1  UNK     1      17.623   4.807  12.516  1.00  0.00    -0.263 N 
ATOM     25  N2  UNK     1      16.525   5.540  12.804  1.00  0.00     0.006 NA
ATOM     26  N3  UNK     1      16.921   6.782  13.038  1.00  0.00    -0.158 NA
ATOM     27  C3  UNK     1      18.286   6.824  12.929  1.00  0.00     0.102 A 
ATOM     28  C4  UNK     1      19.186   7.888  13.089  1.00  0.00     0.035 A 
ATOM     29  C8  UNK     1      18.767   5.558  12.615  1.00  0.00     0.079 A 
ATOM     30  C5  UNK     1      20.554   7.640  12.919  1.00  0.00     0.002 A 
ATOM     31  C6  UNK     1      21.015   6.361  12.613  1.00  0.00     0.002 A 
ATOM     32  C7  UNK     1      20.131   5.285  12.471  1.00  0.00     0.033 A 
ENDBRANCH  23  24
ENDBRANCH   2  23
TORSDOF 6
ENDMDL
MODEL 2
REMARK VINA RESULT:      -7.1     28.833     32.699
REMARK  6 active torsions:
REMARK  status: ('A' for Active; 'I' for Inactive)
REMARK    1  A    between atoms: C1_2  and  C2_3 
REMARK       I    between atoms: C1_2  and  N4_13 
REMARK    2  A    between atoms: C2_3  and  N1_4 
REMARK    3  A    between atoms: N4_13  and  C9_14 
REMARK    4  A    between atoms: N4_13  and  C16_22 
REMARK    5  A    between atoms: C9_14  and  C10_15 
REMARK    6  A    between atoms: C19_25  and  C20_26 
ROOT
ATOM      1  O1  UNK     1       6.234   0.554 -16.708  1.00  0.00    -0.271 OA
ATOM      2  C1  UNK     1       5.120   0.836 -17.171  1.00  0.00     0.244 C 
ATOM      3  N4  UNK     1       4.292   1.783 -16.562  1.00  0.00    -0.312 N 
ENDROOT
BRANCH   3   4
ATOM      4  C9  UNK     1       4.761   2.461 -15.347  1.00  0.00     0.170 C 
BRANCH   4   5
ATOM      5  C10 UNK     1       5.334   3.848 -15.547  1.00  0.00    -0.038 A 
ATOM      6  C11 UNK     1       6.577   4.216 -15.011  1.00  0.00     0.009 A 
ATOM      7  C12 UNK     1       7.016   5.542 -15.060  1.00  0.00     0.002 A 
ATOM      8  C13 UNK     1       6.217   6.523 -15.645  1.00  0.00     0.024 A 
ATOM      9  C14 UNK     1       4.992   6.167 -16.203  1.00  0.00     0.034 A 
ATOM     10 Cl1  UNK     1       3.993   7.378 -16.908  1.00  0.00    -0.084 Cl
ATOM     11  C15 UNK     1       4.552   4.842 -16.164  1.00  0.00     0.032 A 
ENDBRANCH   4   5
ENDBRANCH   3   4
BRANCH   3  12
ATOM     12  C16 UNK     1       2.892   1.812 -16.784  1.00  0.00     0.037 A 
ATOM     13  C17 UNK     1       2.352   2.652 -17.766  1.00  0.00     0.030 A 
ATOM     14  C18 UNK     1       0.971   2.811 -17.873  1.00  0.00     0.016 A 
ATOM     15  C19 UNK     1       0.123   2.119 -17.003  1.00  0.00    -0.006 A 
ATOM     16  C23 UNK     1       0.663   1.199 -16.094  1.00  0.00     0.016 A 
ATOM     17  C24 UNK     1       2.048   1.034 -15.991  1.00  0.00     0.030 A 
BRANCH  15  18
ATOM     18  C20 UNK     1      -1.349   2.414 -16.977  1.00  0.00     0.086 A 
ATOM     19  C21 UNK     1      -2.168   2.752 -18.047  1.00  0.00     0.150 A 
ATOM     20  N5  UNK     1      -3.413   2.996 -17.588  1.00  0.00    -0.252 NA
ATOM     21  C22 UNK     1      -3.373   2.806 -16.253  1.00  0.00     0.233 A 
ATOM     22  N6  UNK     1      -2.128   2.458 -15.866  1.00  0.00    -0.240 NA
ENDBRANCH  15  18
ENDBRANCH   3  12
BRANCH   2  23
ATOM     23  C2  UNK     1       4.647   0.150 -18.446  1.00  0.00     0.250 C 
BRANCH  23  24
ATOM     24  N1  UNK     1       4.382  -1.257 -18.253  1.00  0.00    -0.263 N 
ATOM     25  N2  UNK     1       5.072  -1.950 -17.322  1.00  0.00     0.006 NA
ATOM     26  N3  UNK     1       4.583  -3.181 -17.293  1.00  0.00    -0.158 NA
ATOM     27  C3  UNK     1       3.552  -3.252 -18.193  1.00  0.00     0.102 A 
ATOM     28  C4  UNK     1       2.707  -4.318 -18.536  1.00  0.00     0.035 A 
ATOM     29  C8  UNK     1       3.386  -2.018 -18.810  1.00  0.00     0.079 A 
ATOM     30  C5  UNK     1       1.718  -4.106 -19.505  1.00  0.00     0.002 A 
ATOM     31  C6  UNK     1       1.564  -2.857 -20.104  1.00  0.00     0.002 A 
ATOM     32  C7  UNK     1       2.385  -1.777 -19.758  1.00  0.00     0.033 A 
ENDBRANCH  23  24
ENDBRANCH   2  23
TORSDOF 6
ENDMDL
MODEL 3
REMARK VINA RESULT:      -7.1      2.889      6.185
REMARK  6 active torsions:
REMARK  status: ('A' for Active; 'I' for Inactive)
REMARK    1  A    between atoms: C1_2  and  C2_3 
REMARK       I    between atoms: C1_2  and  N4_13 
REMARK    2  A    between atoms: C2_3  and  N1_4 
REMARK    3  A    between atoms: N4_13  and  C9_14 
REMARK    4  A    between atoms: N4_13  and  C16_22 
REMARK    5  A    between atoms: C9_14  and  C10_15 
REMARK    6  A    between atoms: C19_25  and  C20_26 
ROOT
ATOM      1  O1  UNK     1      17.252   2.793   8.358  1.00  0.00    -0.271 OA
ATOM      2  C1  UNK     1      16.796   2.638   9.498  1.00  0.00     0.244 C 
ATOM      3  N4  UNK     1      15.498   2.162   9.709  1.00  0.00    -0.312 N 
ENDROOT
BRANCH   3   4
ATOM      4  C9  UNK     1      14.664   1.832   8.546  1.00  0.00     0.170 C 
BRANCH   4   5
ATOM      5  C10 UNK     1      14.631   0.371   8.152  1.00  0.00    -0.038 A 
ATOM      6  C11 UNK     1      15.624  -0.196   7.340  1.00  0.00     0.009 A 
ATOM      7  C12 UNK     1      15.494  -1.497   6.847  1.00  0.00     0.002 A 
ATOM      8  C13 UNK     1      14.364  -2.253   7.159  1.00  0.00     0.024 A 
ATOM      9  C14 UNK     1      13.382  -1.712   7.985  1.00  0.00     0.034 A 
ATOM     10 Cl1  UNK     1      11.978  -2.634   8.356  1.00  0.00    -0.084 Cl
ATOM     11  C15 UNK     1      13.512  -0.415   8.485  1.00  0.00     0.032 A 
ENDBRANCH   4   5
ENDBRANCH   3   4
BRANCH   3  12
ATOM     12  C16 UNK     1      14.803   2.384  10.924  1.00  0.00     0.037 A 
ATOM     13  C17 UNK     1      14.268   3.647  11.208  1.00  0.00     0.030 A 
ATOM     14  C18 UNK     1      13.735   3.917  12.469  1.00  0.00     0.016 A 
ATOM     15  C19 UNK     1      13.725   2.917  13.447  1.00  0.00    -0.006 A 
ATOM     16  C23 UNK     1      14.163   1.626  13.123  1.00  0.00     0.016 A 
ATOM     17  C24 UNK     1      14.691   1.353  11.857  1.00  0.00     0.030 A 
BRANCH  15  18
ATOM     18  C20 UNK     1      13.328   3.236  14.859  1.00  0.00     0.086 A 
ATOM     19  C21 UNK     1      14.152   3.327  15.974  1.00  0.00     0.150 A 
ATOM     20  N5  UNK     1      13.394   3.572  17.062  1.00  0.00    -0.252 NA
ATOM     21  C22 UNK     1      12.117   3.640  16.632  1.00  0.00     0.233 A 
ATOM     22  N6  UNK     1      12.060   3.432  15.300  1.00  0.00    -0.240 NA
ENDBRANCH  15  18
ENDBRANCH   3  12
BRANCH   2  23
ATOM     23  C2  UNK     1      17.672   2.955  10.702  1.00  0.00     0.250 C 
BRANCH  23  24
ATOM     24  N1  UNK     1      18.059   4.346  10.756  1.00  0.00    -0.263 N 
ATOM     25  N2  UNK     1      17.500   5.165  11.672  1.00  0.00     0.006 NA
ATOM     26  N3  UNK     1      18.083   6.350  11.562  1.00  0.00    -0.158 NA
ATOM     27  C3  UNK     1      19.043   6.264  10.588  1.00  0.00     0.102 A 
ATOM     28  C4  UNK     1      19.939   7.225  10.097  1.00  0.00     0.035 A 
ATOM     29  C8  UNK     1      19.065   4.975  10.067  1.00  0.00     0.079 A 
ATOM     30  C5  UNK     1      20.830   6.855   9.082  1.00  0.00     0.002 A 
ATOM     31  C6  UNK     1      20.840   5.554   8.580  1.00  0.00     0.002 A 
ATOM     32  C7  UNK     1      19.967   4.578   9.075  1.00  0.00     0.033 A 
ENDBRANCH  23  24
ENDBRANCH   2  23
TORSDOF 6
ENDMDL
MODEL 4
REMARK VINA RESULT:      -7.0     30.180     33.920
REMARK  6 active torsions:
REMARK  status: ('A' for Active; 'I' for Inactive)
REMARK    1  A    between atoms: C1_2  and  C2_3 
REMARK       I    between atoms: C1_2  and  N4_13 
REMARK    2  A    between atoms: C2_3  and  N1_4 
REMARK    3  A    between atoms: N4_13  and  C9_14 
REMARK    4  A    between atoms: N4_13  and  C16_22 
REMARK    5  A    between atoms: C9_14  and  C10_15 
REMARK    6  A    between atoms: C19_25  and  C20_26 
ROOT
ATOM      1  O1  UNK     1       3.446   0.852 -19.012  1.00  0.00    -0.271 OA
ATOM      2  C1  UNK     1       2.507   1.558 -18.620  1.00  0.00     0.244 C 
ATOM      3  N4  UNK     1       2.268   1.769 -17.259  1.00  0.00    -0.312 N 
ENDROOT
BRANCH   3   4
ATOM      4  C9  UNK     1       3.159   1.141 -16.275  1.00  0.00     0.170 C 
BRANCH   4   5
ATOM      5  C10 UNK     1       4.352   1.967 -15.845  1.00  0.00    -0.038 A 
ATOM      6  C11 UNK     1       5.368   1.432 -15.041  1.00  0.00     0.009 A 
ATOM      7  C12 UNK     1       6.373   2.248 -14.514  1.00  0.00     0.002 A 
ATOM      8  C13 UNK     1       6.377   3.615 -14.784  1.00  0.00     0.024 A 
ATOM      9  C14 UNK     1       5.389   4.156 -15.602  1.00  0.00     0.034 A 
ATOM     10 Cl1  UNK     1       5.378   5.847 -15.921  1.00  0.00    -0.084 Cl
ATOM     11  C15 UNK     1       4.386   3.344 -16.136  1.00  0.00     0.032 A 
ENDBRANCH   4   5
ENDBRANCH   3   4
BRANCH   3  12
ATOM     12  C16 UNK     1       1.001   2.179 -16.772  1.00  0.00     0.037 A 
ATOM     13  C17 UNK     1       0.108   1.234 -16.251  1.00  0.00     0.030 A 
ATOM     14  C18 UNK     1      -1.198   1.604 -15.930  1.00  0.00     0.016 A 
ATOM     15  C19 UNK     1      -1.611   2.927 -16.118  1.00  0.00    -0.006 A 
ATOM     16  C23 UNK     1      -0.684   3.890 -16.538  1.00  0.00     0.016 A 
ATOM     17  C24 UNK     1       0.628   3.521 -16.854  1.00  0.00     0.030 A 
BRANCH  15  18
ATOM     18  C20 UNK     1      -3.055   3.306 -15.955  1.00  0.00     0.086 A 
ATOM     19  C21 UNK     1      -3.571   4.503 -15.474  1.00  0.00     0.150 A 
ATOM     20  N5  UNK     1      -4.916   4.415 -15.431  1.00  0.00    -0.252 NA
ATOM     21  C22 UNK     1      -5.235   3.186 -15.884  1.00  0.00     0.233 A 
ATOM     22  N6  UNK     1      -4.117   2.498 -16.200  1.00  0.00    -0.240 NA
ENDBRANCH  15  18
ENDBRANCH   3  12
BRANCH   2  23
ATOM     23  C2  UNK     1       1.601   2.230 -19.643  1.00  0.00     0.250 C 
BRANCH  23  24
ATOM     24  N1  UNK     1       0.372   1.501 -19.859  1.00  0.00    -0.263 N 
ATOM     25  N2  UNK     1       0.384   0.151 -19.867  1.00  0.00     0.006 NA
ATOM     26  N3  UNK     1      -0.869  -0.261 -20.000  1.00  0.00    -0.158 NA
ATOM     27  C3  UNK     1      -1.679   0.842 -20.042  1.00  0.00     0.102 A 
ATOM     28  C4  UNK     1      -3.072   0.952 -20.164  1.00  0.00     0.035 A 
ATOM     29  C8  UNK     1      -0.907   1.992 -19.930  1.00  0.00     0.079 A 
ATOM     30  C5  UNK     1      -3.646   2.230 -20.177  1.00  0.00     0.002 A 
ATOM     31  C6  UNK     1      -2.853   3.369 -20.055  1.00  0.00     0.002 A 
ATOM     32  C7  UNK     1      -1.464   3.276 -19.911  1.00  0.00     0.033 A 
ENDBRANCH  23  24
ENDBRANCH   2  23
TORSDOF 6
ENDMDL
MODEL 5
REMARK VINA RESULT:      -6.9      2.185      3.187
REMARK  6 active torsions:
REMARK  status: ('A' for Active; 'I' for Inactive)
REMARK    1  A    between atoms: C1_2  and  C2_3 
REMARK       I    between atoms: C1_2  and  N4_13 
REMARK    2  A    between atoms: C2_3  and  N1_4 
REMARK    3  A    between atoms: N4_13  and  C9_14 
REMARK    4  A    between atoms: N4_13  and  C16_22 
REMARK    5  A    between atoms: C9_14  and  C10_15 
REMARK    6  A    between atoms: C19_25  and  C20_26 
ROOT
ATOM      1  O1  UNK     1      17.455   5.928  12.398  1.00  0.00    -0.271 OA
ATOM      2  C1  UNK     1      18.358   5.915  11.551  1.00  0.00     0.244 C 
ATOM      3  N4  UNK     1      18.626   4.776  10.785  1.00  0.00    -0.312 N 
ENDROOT
BRANCH   3   4
ATOM      4  C9  UNK     1      17.811   3.573  10.990  1.00  0.00     0.170 C 
BRANCH   4   5
ATOM      5  C10 UNK     1      17.392   2.839   9.734  1.00  0.00    -0.038 A 
ATOM      6  C11 UNK     1      16.561   3.435   8.774  1.00  0.00     0.009 A 
ATOM      7  C12 UNK     1      16.048   2.693   7.707  1.00  0.00     0.002 A 
ATOM      8  C13 UNK     1      16.357   1.339   7.584  1.00  0.00     0.024 A 
ATOM      9  C14 UNK     1      17.200   0.740   8.516  1.00  0.00     0.034 A 
ATOM     10 Cl1  UNK     1      17.567  -0.936   8.380  1.00  0.00    -0.084 Cl
ATOM     11  C15 UNK     1      17.721   1.479   9.580  1.00  0.00     0.032 A 
ENDBRANCH   4   5
ENDBRANCH   3   4
BRANCH   3  12
ATOM     12  C16 UNK     1      19.878   4.573  10.152  1.00  0.00     0.037 A 
ATOM     13  C17 UNK     1      20.186   5.252   8.966  1.00  0.00     0.030 A 
ATOM     14  C18 UNK     1      21.339   4.930   8.251  1.00  0.00     0.016 A 
ATOM     15  C19 UNK     1      22.197   3.934   8.728  1.00  0.00    -0.006 A 
ATOM     16  C23 UNK     1      21.940   3.335   9.968  1.00  0.00     0.016 A 
ATOM     17  C24 UNK     1      20.787   3.662  10.689  1.00  0.00     0.030 A 
BRANCH  15  18
ATOM     18  C20 UNK     1      23.340   3.444   7.887  1.00  0.00     0.086 A 
ATOM     19  C21 UNK     1      24.699   3.647   8.097  1.00  0.00     0.150 A 
ATOM     20  N5  UNK     1      25.388   3.094   7.079  1.00  0.00    -0.252 NA
ATOM     21  C22 UNK     1      24.475   2.549   6.249  1.00  0.00     0.233 A 
ATOM     22  N6  UNK     1      23.228   2.758   6.722  1.00  0.00    -0.240 NA
ENDBRANCH  15  18
ENDBRANCH   3  12
BRANCH   2  23
ATOM     23  C2  UNK     1      19.185   7.173  11.320  1.00  0.00     0.250 C 
BRANCH  23  24
ATOM     24  N1  UNK     1      20.016   7.505  12.454  1.00  0.00    -0.263 N 
ATOM     25  N2  UNK     1      19.468   8.083  13.544  1.00  0.00     0.006 NA
ATOM     26  N3  UNK     1      20.420   8.204  14.457  1.00  0.00    -0.158 NA
ATOM     27  C3  UNK     1      21.572   7.664  13.947  1.00  0.00     0.102 A 
ATOM     28  C4  UNK     1      22.851   7.536  14.509  1.00  0.00     0.035 A 
ATOM     29  C8  UNK     1      21.334   7.185  12.665  1.00  0.00     0.079 A 
ATOM     30  C5  UNK     1      23.859   6.929  13.750  1.00  0.00     0.002 A 
ATOM     31  C6  UNK     1      23.595   6.448  12.468  1.00  0.00     0.002 A 
ATOM     32  C7  UNK     1      22.319   6.549  11.902  1.00  0.00     0.033 A 
ENDBRANCH  23  24
ENDBRANCH   2  23
TORSDOF 6
ENDMDL
MODEL 6
REMARK VINA RESULT:      -6.9      3.285      7.117
REMARK  6 active torsions:
REMARK  status: ('A' for Active; 'I' for Inactive)
REMARK    1  A    between atoms: C1_2  and  C2_3 
REMARK       I    between atoms: C1_2  and  N4_13 
REMARK    2  A    between atoms: C2_3  and  N1_4 
REMARK    3  A    between atoms: N4_13  and  C9_14 
REMARK    4  A    between atoms: N4_13  and  C16_22 
REMARK    5  A    between atoms: C9_14  and  C10_15 
REMARK    6  A    between atoms: C19_25  and  C20_26 
ROOT
ATOM      1  O1  UNK     1      19.337   5.796  12.243  1.00  0.00    -0.271 OA
ATOM      2  C1  UNK     1      18.958   4.740  11.720  1.00  0.00     0.244 C 
ATOM      3  N4  UNK     1      19.171   4.478  10.363  1.00  0.00    -0.312 N 
ENDROOT
BRANCH   3   4
ATOM      4  C9  UNK     1      19.866   5.481   9.546  1.00  0.00     0.170 C 
BRANCH   4   5
ATOM      5  C10 UNK     1      21.318   5.185   9.235  1.00  0.00    -0.038 A 
ATOM      6  C11 UNK     1      21.692   4.432   8.112  1.00  0.00     0.009 A 
ATOM      7  C12 UNK     1      23.017   4.025   7.929  1.00  0.00     0.002 A 
ATOM      8  C13 UNK     1      23.989   4.365   8.868  1.00  0.00     0.024 A 
ATOM      9  C14 UNK     1      23.636   5.133   9.975  1.00  0.00     0.034 A 
ATOM     10 Cl1  UNK     1      24.829   5.538  11.147  1.00  0.00    -0.084 Cl
ATOM     11  C15 UNK     1      22.316   5.548  10.158  1.00  0.00     0.032 A 
ENDBRANCH   4   5
ENDBRANCH   3   4
BRANCH   3  12
ATOM     12  C16 UNK     1      18.396   3.529   9.650  1.00  0.00     0.037 A 
ATOM     13  C17 UNK     1      17.207   3.921   9.021  1.00  0.00     0.030 A 
ATOM     14  C18 UNK     1      16.358   2.964   8.466  1.00  0.00     0.016 A 
ATOM     15  C19 UNK     1      16.703   1.610   8.527  1.00  0.00    -0.006 A 
ATOM     16  C23 UNK     1      17.942   1.234   9.061  1.00  0.00     0.016 A 
ATOM     17  C24 UNK     1      18.798   2.194   9.612  1.00  0.00     0.030 A 
BRANCH  15  18
ATOM     18  C20 UNK     1      15.724   0.554   8.103  1.00  0.00     0.086 A 
ATOM     19  C21 UNK     1      14.337   0.609   8.154  1.00  0.00     0.150 A 
ATOM     20  N5  UNK     1      13.834  -0.570   7.738  1.00  0.00    -0.252 NA
ATOM     21  C22 UNK     1      14.890  -1.348   7.424  1.00  0.00     0.233 A 
ATOM     22  N6  UNK     1      16.044  -0.684   7.646  1.00  0.00    -0.240 NA
ENDBRANCH  15  18
ENDBRANCH   3  12
BRANCH   2  23
ATOM     23  C2  UNK     1      18.262   3.691  12.575  1.00  0.00     0.250 C 
BRANCH  23  24
ATOM     24  N1  UNK     1      16.822   3.777  12.495  1.00  0.00    -0.263 N 
ATOM     25  N2  UNK     1      16.217   4.984  12.530  1.00  0.00     0.006 NA
ATOM     26  N3  UNK     1      14.918   4.788  12.358  1.00  0.00    -0.158 NA
ATOM     27  C3  UNK     1      14.709   3.446  12.178  1.00  0.00     0.102 A 
ATOM     28  C4  UNK     1      13.527   2.725  11.950  1.00  0.00     0.035 A 
ATOM     29  C8  UNK     1      15.923   2.772  12.239  1.00  0.00     0.079 A 
ATOM     30  C5  UNK     1      13.608   1.335  11.797  1.00  0.00     0.002 A 
ATOM     31  C6  UNK     1      14.838   0.682  11.853  1.00  0.00     0.002 A 
ATOM     32  C7  UNK     1      16.028   1.389  12.059  1.00  0.00     0.033 A 
ENDBRANCH  23  24
ENDBRANCH   2  23
TORSDOF 6
ENDMDL
MODEL 7
REMARK VINA RESULT:      -6.9     29.076     32.387
REMARK  6 active torsions:
REMARK  status: ('A' for Active; 'I' for Inactive)
REMARK    1  A    between atoms: C1_2  and  C2_3 
REMARK       I    between atoms: C1_2  and  N4_13 
REMARK    2  A    between atoms: C2_3  and  N1_4 
REMARK    3  A    between atoms: N4_13  and  C9_14 
REMARK    4  A    between atoms: N4_13  and  C16_22 
REMARK    5  A    between atoms: C9_14  and  C10_15 
REMARK    6  A    between atoms: C19_25  and  C20_26 
ROOT
ATOM      1  O1  UNK     1       5.537   1.008 -17.313  1.00  0.00    -0.271 OA
ATOM      2  C1  UNK     1       4.405   1.209 -16.853  1.00  0.00     0.244 C 
ATOM      3  N4  UNK     1       3.254   0.829 -17.549  1.00  0.00    -0.312 N 
ENDROOT
BRANCH   3   4
ATOM      4  C9  UNK     1       3.397   0.169 -18.853  1.00  0.00     0.170 C 
BRANCH   4   5
ATOM      5  C10 UNK     1       3.060  -1.306 -18.885  1.00  0.00    -0.038 A 
ATOM      6  C11 UNK     1       3.847  -2.256 -18.218  1.00  0.00     0.009 A 
ATOM      7  C12 UNK     1       3.623  -3.625 -18.393  1.00  0.00     0.002 A 
ATOM      8  C13 UNK     1       2.608  -4.065 -19.241  1.00  0.00     0.024 A 
ATOM      9  C14 UNK     1       1.803  -3.133 -19.890  1.00  0.00     0.034 A 
ATOM     10 Cl1  UNK     1       0.562  -3.672 -20.953  1.00  0.00    -0.084 Cl
ATOM     11  C15 UNK     1       2.018  -1.764 -19.713  1.00  0.00     0.032 A 
ENDBRANCH   4   5
ENDBRANCH   3   4
BRANCH   3  12
ATOM     12  C16 UNK     1       1.989   1.414 -17.289  1.00  0.00     0.037 A 
ATOM     13  C17 UNK     1       1.212   0.961 -16.215  1.00  0.00     0.030 A 
ATOM     14  C18 UNK     1      -0.099   1.412 -16.057  1.00  0.00     0.016 A 
ATOM     15  C19 UNK     1      -0.632   2.329 -16.967  1.00  0.00    -0.006 A 
ATOM     16  C23 UNK     1       0.184   2.859 -17.976  1.00  0.00     0.016 A 
ATOM     17  C24 UNK     1       1.500   2.413 -18.131  1.00  0.00     0.030 A 
BRANCH  15  18
ATOM     18  C20 UNK     1      -2.090   2.686 -16.926  1.00  0.00     0.086 A 
ATOM     19  C21 UNK     1      -2.819   3.397 -17.871  1.00  0.00     0.150 A 
ATOM     20  N5  UNK     1      -4.082   3.554 -17.424  1.00  0.00    -0.252 NA
ATOM     21  C22 UNK     1      -4.143   2.943 -16.223  1.00  0.00     0.233 A 
ATOM     22  N6  UNK     1      -2.941   2.418 -15.903  1.00  0.00    -0.240 NA
ENDBRANCH  15  18
ENDBRANCH   3  12
BRANCH   2  23
ATOM     23  C2  UNK     1       4.260   1.869 -15.488  1.00  0.00     0.250 C 
BRANCH  23  24
ATOM     24  N1  UNK     1       5.037   3.081 -15.373  1.00  0.00    -0.263 N 
ATOM     25  N2  UNK     1       6.253   3.047 -14.786  1.00  0.00     0.006 NA
ATOM     26  N3  UNK     1       6.781   4.259 -14.884  1.00  0.00    -0.158 NA
ATOM     27  C3  UNK     1       5.900   5.054 -15.570  1.00  0.00     0.102 A 
ATOM     28  C4  UNK     1       5.984   6.404 -15.943  1.00  0.00     0.035 A 
ATOM     29  C8  UNK     1       4.777   4.314 -15.917  1.00  0.00     0.079 A 
ATOM     30  C5  UNK     1       4.919   6.970 -16.654  1.00  0.00     0.002 A 
ATOM     31  C6  UNK     1       3.805   6.206 -17.000  1.00  0.00     0.002 A 
ATOM     32  C7  UNK     1       3.716   4.853 -16.653  1.00  0.00     0.033 A 
ENDBRANCH  23  24
ENDBRANCH   2  23
TORSDOF 6
ENDMDL
MODEL 8
REMARK VINA RESULT:      -6.8     29.175     32.661
REMARK  6 active torsions:
REMARK  status: ('A' for Active; 'I' for Inactive)
REMARK    1  A    between atoms: C1_2  and  C2_3 
REMARK       I    between atoms: C1_2  and  N4_13 
REMARK    2  A    between atoms: C2_3  and  N1_4 
REMARK    3  A    between atoms: N4_13  and  C9_14 
REMARK    4  A    between atoms: N4_13  and  C16_22 
REMARK    5  A    between atoms: C9_14  and  C10_15 
REMARK    6  A    between atoms: C19_25  and  C20_26 
ROOT
ATOM      1  O1  UNK     1       3.916   2.520 -19.228  1.00  0.00    -0.271 OA
ATOM      2  C1  UNK     1       2.928   2.546 -18.482  1.00  0.00     0.244 C 
ATOM      3  N4  UNK     1       1.927   1.573 -18.558  1.00  0.00    -0.312 N 
ENDROOT
BRANCH   3   4
ATOM      4  C9  UNK     1       2.059   0.493 -19.544  1.00  0.00     0.170 C 
BRANCH   4   5
ATOM      5  C10 UNK     1       2.621  -0.811 -19.020  1.00  0.00    -0.038 A 
ATOM      6  C11 UNK     1       3.811  -0.857 -18.280  1.00  0.00     0.009 A 
ATOM      7  C12 UNK     1       4.405  -2.079 -17.948  1.00  0.00     0.002 A 
ATOM      8  C13 UNK     1       3.815  -3.275 -18.352  1.00  0.00     0.024 A 
ATOM      9  C14 UNK     1       2.620  -3.245 -19.066  1.00  0.00     0.034 A 
ATOM     10 Cl1  UNK     1       1.900  -4.720 -19.584  1.00  0.00    -0.084 Cl
ATOM     11  C15 UNK     1       2.020  -2.028 -19.394  1.00  0.00     0.032 A 
ENDBRANCH   4   5
ENDBRANCH   3   4
BRANCH   3  12
ATOM     12  C16 UNK     1       0.619   1.799 -18.061  1.00  0.00     0.037 A 
ATOM     13  C17 UNK     1      -0.366   2.344 -18.894  1.00  0.00     0.030 A 
ATOM     14  C18 UNK     1      -1.600   2.725 -18.367  1.00  0.00     0.016 A 
ATOM     15  C19 UNK     1      -1.857   2.550 -17.004  1.00  0.00    -0.006 A 
ATOM     16  C23 UNK     1      -0.909   1.907 -16.197  1.00  0.00     0.016 A 
ATOM     17  C24 UNK     1       0.326   1.518 -16.726  1.00  0.00     0.030 A 
BRANCH  15  18
ATOM     18  C20 UNK     1      -3.100   3.118 -16.382  1.00  0.00     0.086 A 
ATOM     19  C21 UNK     1      -3.324   4.427 -15.972  1.00  0.00     0.150 A 
ATOM     20  N5  UNK     1      -4.547   4.507 -15.409  1.00  0.00    -0.252 NA
ATOM     21  C22 UNK     1      -5.081   3.271 -15.474  1.00  0.00     0.233 A 
ATOM     22  N6  UNK     1      -4.213   2.416 -16.055  1.00  0.00    -0.240 NA
ENDBRANCH  15  18
ENDBRANCH   3  12
BRANCH   2  23
ATOM     23  C2  UNK     1       2.807   3.652 -17.442  1.00  0.00     0.250 C 
BRANCH  23  24
ATOM     24  N1  UNK     1       4.011   3.814 -16.661  1.00  0.00    -0.263 N 
ATOM     25  N2  UNK     1       4.581   5.033 -16.547  1.00  0.00     0.006 NA
ATOM     26  N3  UNK     1       5.610   4.920 -15.721  1.00  0.00    -0.158 NA
ATOM     27  C3  UNK     1       5.668   3.622 -15.285  1.00  0.00     0.102 A 
ATOM     28  C4  UNK     1       6.556   2.991 -14.402  1.00  0.00     0.035 A 
ATOM     29  C8  UNK     1       4.634   2.892 -15.858  1.00  0.00     0.079 A 
ATOM     30  C5  UNK     1       6.376   1.629 -14.128  1.00  0.00     0.002 A 
ATOM     31  C6  UNK     1       5.326   0.918 -14.709  1.00  0.00     0.002 A 
ATOM     32  C7  UNK     1       4.419   1.538 -15.575  1.00  0.00     0.033 A 
ENDBRANCH  23  24
ENDBRANCH   2  23
TORSDOF 6
ENDMDL
MODEL 9
REMARK VINA RESULT:      -6.7     27.439     29.641
REMARK  6 active torsions:
REMARK  status: ('A' for Active; 'I' for Inactive)
REMARK    1  A    between atoms: C1_2  and  C2_3 
REMARK       I    between atoms: C1_2  and  N4_13 
REMARK    2  A    between atoms: C2_3  and  N1_4 
REMARK    3  A    between atoms: N4_13  and  C9_14 
REMARK    4  A    between atoms: N4_13  and  C16_22 
REMARK    5  A    between atoms: C9_14  and  C10_15 
REMARK    6  A    between atoms: C19_25  and  C20_26 
ROOT
ATOM      1  O1  UNK     1       3.712   8.486 -17.931  1.00  0.00    -0.271 OA
ATOM      2  C1  UNK     1       3.969   7.635 -17.068  1.00  0.00     0.244 C 
ATOM      3  N4  UNK     1       5.034   6.741 -17.216  1.00  0.00    -0.312 N 
ENDROOT
BRANCH   3   4
ATOM      4  C9  UNK     1       5.867   6.821 -18.422  1.00  0.00     0.170 C 
BRANCH   4   5
ATOM      5  C10 UNK     1       7.271   7.348 -18.218  1.00  0.00    -0.038 A 
ATOM      6  C11 UNK     1       8.376   6.772 -18.862  1.00  0.00     0.009 A 
ATOM      7  C12 UNK     1       9.680   7.158 -18.538  1.00  0.00     0.002 A 
ATOM      8  C13 UNK     1       9.899   8.127 -17.560  1.00  0.00     0.024 A 
ATOM      9  C14 UNK     1       8.811   8.726 -16.930  1.00  0.00     0.034 A 
ATOM     10 Cl1  UNK     1       9.078   9.909 -15.709  1.00  0.00    -0.084 Cl
ATOM     11  C15 UNK     1       7.507   8.349 -17.257  1.00  0.00     0.032 A 
ENDBRANCH   4   5
ENDBRANCH   3   4
BRANCH   3  12
ATOM     12  C16 UNK     1       5.091   5.515 -16.506  1.00  0.00     0.037 A 
ATOM     13  C17 UNK     1       6.115   5.286 -15.578  1.00  0.00     0.030 A 
ATOM     14  C18 UNK     1       6.275   4.025 -15.006  1.00  0.00     0.016 A 
ATOM     15  C19 UNK     1       5.400   2.989 -15.350  1.00  0.00    -0.006 A 
ATOM     16  C23 UNK     1       4.314   3.252 -16.196  1.00  0.00     0.016 A 
ATOM     17  C24 UNK     1       4.149   4.519 -16.766  1.00  0.00     0.030 A 
BRANCH  15  18
ATOM     18  C20 UNK     1       5.662   1.584 -14.891  1.00  0.00     0.086 A 
ATOM     19  C21 UNK     1       5.579   0.415 -15.639  1.00  0.00     0.150 A 
ATOM     20  N5  UNK     1       5.833  -0.638 -14.836  1.00  0.00    -0.252 NA
ATOM     21  C22 UNK     1       6.078  -0.135 -13.609  1.00  0.00     0.233 A 
ATOM     22  N6  UNK     1       5.972   1.210 -13.624  1.00  0.00    -0.240 NA
ENDBRANCH  15  18
ENDBRANCH   3  12
BRANCH   2  23
ATOM     23  C2  UNK     1       3.120   7.572 -15.806  1.00  0.00     0.250 C 
BRANCH  23  24
ATOM     24  N1  UNK     1       3.158   8.802 -15.050  1.00  0.00    -0.263 N 
ATOM     25  N2  UNK     1       2.025   9.513 -14.863  1.00  0.00     0.006 NA
ATOM     26  N3  UNK     1       2.319  10.538 -14.076  1.00  0.00    -0.158 NA
ATOM     27  C3  UNK     1       3.644  10.451 -13.738  1.00  0.00     0.102 A 
ATOM     28  C4  UNK     1       4.439  11.276 -12.929  1.00  0.00     0.035 A 
ATOM     29  C8  UNK     1       4.204   9.328 -14.334  1.00  0.00     0.079 A 
ATOM     30  C5  UNK     1       5.787  10.943 -12.750  1.00  0.00     0.002 A 
ATOM     31  C6  UNK     1       6.326   9.806 -13.351  1.00  0.00     0.002 A 
ATOM     32  C7  UNK     1       5.541   8.961 -14.144  1.00  0.00     0.033 A 
ENDBRANCH  23  24
ENDBRANCH   2  23
TORSDOF 6
ENDMDL
MODEL 10
REMARK VINA RESULT:      -6.7      3.426      6.707
REMARK  6 active torsions:
REMARK  status: ('A' for Active; 'I' for Inactive)
REMARK    1  A    between atoms: C1_2  and  C2_3 
REMARK       I    between atoms: C1_2  and  N4_13 
REMARK    2  A    between atoms: C2_3  and  N1_4 
REMARK    3  A    between atoms: N4_13  and  C9_14 
REMARK    4  A    between atoms: N4_13  and  C16_22 
REMARK    5  A    between atoms: C9_14  and  C10_15 
REMARK    6  A    between atoms: C19_25  and  C20_26 
ROOT
ATOM      1  O1  UNK     1      18.768   6.181  11.756  1.00  0.00    -0.271 OA
ATOM      2  C1  UNK     1      18.454   5.057  11.341  1.00  0.00     0.244 C 
ATOM      3  N4  UNK     1      18.813   4.623  10.061  1.00  0.00    -0.312 N 
ENDROOT
BRANCH   3   4
ATOM      4  C9  UNK     1      19.587   5.522   9.196  1.00  0.00     0.170 C 
BRANCH   4   5
ATOM      5  C10 UNK     1      21.072   5.241   9.115  1.00  0.00    -0.038 A 
ATOM      6  C11 UNK     1      21.615   4.424   8.113  1.00  0.00     0.009 A 
ATOM      7  C12 UNK     1      22.958   4.038   8.148  1.00  0.00     0.002 A 
ATOM      8  C13 UNK     1      23.780   4.463   9.189  1.00  0.00     0.024 A 
ATOM      9  C14 UNK     1      23.262   5.295  10.179  1.00  0.00     0.034 A 
ATOM     10 Cl1  UNK     1      24.269   5.805  11.477  1.00  0.00    -0.084 Cl
ATOM     11  C15 UNK     1      21.923   5.689  10.144  1.00  0.00     0.032 A 
ENDBRANCH   4   5
ENDBRANCH   3   4
BRANCH   3  12
ATOM     12  C16 UNK     1      18.125   3.573   9.403  1.00  0.00     0.037 A 
ATOM     13  C17 UNK     1      17.031   3.858   8.576  1.00  0.00     0.030 A 
ATOM     14  C18 UNK     1      16.248   2.823   8.065  1.00  0.00     0.016 A 
ATOM     15  C19 UNK     1      16.568   1.495   8.368  1.00  0.00    -0.006 A 
ATOM     16  C23 UNK     1      17.725   1.212   9.106  1.00  0.00     0.016 A 
ATOM     17  C24 UNK     1      18.514   2.250   9.614  1.00  0.00     0.030 A 
BRANCH  15  18
ATOM     18  C20 UNK     1      15.639   0.380   7.983  1.00  0.00     0.086 A 
ATOM     19  C21 UNK     1      14.263   0.317   8.166  1.00  0.00     0.150 A 
ATOM     20  N5  UNK     1      13.818  -0.881   7.737  1.00  0.00    -0.252 NA
ATOM     21  C22 UNK     1      14.897  -1.554   7.288  1.00  0.00     0.233 A 
ATOM     22  N6  UNK     1      16.010  -0.805   7.436  1.00  0.00    -0.240 NA
ENDBRANCH  15  18
ENDBRANCH   3  12
BRANCH   2  23
ATOM     23  C2  UNK     1      17.675   4.117  12.249  1.00  0.00     0.250 C 
BRANCH  23  24
ATOM     24  N1  UNK     1      16.626   4.792  12.978  1.00  0.00    -0.263 N 
ATOM     25  N2  UNK     1      15.363   4.787  12.500  1.00  0.00     0.006 NA
ATOM     26  N3  UNK     1      14.594   5.398  13.389  1.00  0.00    -0.158 NA
ATOM     27  C3  UNK     1      15.376   5.760  14.454  1.00  0.00     0.102 A 
ATOM     28  C4  UNK     1      15.050   6.419  15.649  1.00  0.00     0.035 A 
ATOM     29  C8  UNK     1      16.688   5.361  14.225  1.00  0.00     0.079 A 
ATOM     30  C5  UNK     1      16.068   6.662  16.580  1.00  0.00     0.002 A 
ATOM     31  C6  UNK     1      17.375   6.245  16.333  1.00  0.00     0.002 A 
ATOM     32  C7  UNK     1      17.712   5.568  15.155  1.00  0.00     0.033 A 
ENDBRANCH  23  24
ENDBRANCH   2  23
TORSDOF 6
ENDMDL
