MODEL 1
REMARK VINA RESULT:      -7.0      0.000      0.000
REMARK  6 active torsions:
REMARK  status: ('A' for Active; 'I' for Inactive)
REMARK    1  A    between atoms: C1_2  and  C2_3 
REMARK       I    between atoms: C1_2  and  N4_13 
REMARK    2  A    between atoms: C2_3  and  N1_4 
REMARK    3  A    between atoms: N4_13  and  C9_14 
REMARK    4  A    between atoms: N4_13  and  C16_22 
REMARK    5  A    between atoms: C9_14  and  C10_15 
REMARK    6  A    between atoms: C19_25  and  C20_26 
ROOT
ATOM      1  O1  UNK     1      18.875  10.817  -1.036  1.00  0.00    -0.271 OA
ATOM      2  C1  UNK     1      18.082  11.675  -1.431  1.00  0.00     0.245 C 
ATOM      3  N4  UNK     1      18.425  13.032  -1.450  1.00  0.00    -0.297 N 
ENDROOT
BRANCH   3   4
ATOM      4  C9  UNK     1      19.791  13.407  -1.049  1.00  0.00     0.172 C 
BRANCH   4   5
ATOM      5  C10 UNK     1      20.440  14.431  -1.956  1.00  0.00    -0.038 A 
ATOM      6  C11 UNK     1      21.001  14.047  -3.183  1.00  0.00     0.009 A 
ATOM      7  C12 UNK     1      21.602  14.987  -4.023  1.00  0.00     0.002 A 
ATOM      8  C13 UNK     1      21.657  16.326  -3.643  1.00  0.00     0.024 A 
ATOM      9  C14 UNK     1      21.125  16.716  -2.417  1.00  0.00     0.034 A 
ATOM     10 Cl1  UNK     1      21.206  18.367  -1.939  1.00  0.00    -0.084 Cl
ATOM     11  C15 UNK     1      20.528  15.779  -1.571  1.00  0.00     0.032 A 
ENDBRANCH   4   5
ENDBRANCH   3   4
BRANCH   3  12
ATOM     12  C16 UNK     1      17.433  14.052  -1.422  1.00  0.00     0.132 A 
ATOM     13  C17 UNK     1      16.944  14.543  -0.217  1.00  0.00     0.051 A 
ATOM     14  C18 UNK     1      15.850  15.410  -0.222  1.00  0.00     0.017 A 
ATOM     15  C19 UNK     1      15.265  15.766  -1.432  1.00  0.00    -0.005 A 
ATOM     16  C23 UNK     1      15.861  15.300  -2.590  1.00  0.00     0.131 A 
ATOM     17  N7  UNK     1      16.929  14.462  -2.605  1.00  0.00    -0.242 NA
BRANCH  15  18
ATOM     18  C20 UNK     1      14.017  16.566  -1.475  1.00  0.00     0.014 A 
ATOM     19  C21 UNK     1      13.718  17.702  -2.193  1.00  0.00     0.154 A 
ATOM     20  N5  UNK     1      12.457  18.121  -2.018  1.00  0.00    -0.162 NA
ATOM     21  N6  UNK     1      11.882  17.260  -1.156  1.00  0.00    -0.162 NA
ATOM     22  C22 UNK     1      12.813  16.348  -0.845  1.00  0.00     0.154 A 
ENDBRANCH  15  18
ENDBRANCH   3  12
BRANCH   2  23
ATOM     23  C2  UNK     1      16.700  11.286  -1.954  1.00  0.00     0.250 C 
BRANCH  23  24
ATOM     24  N1  UNK     1      16.701  11.114  -3.392  1.00  0.00    -0.263 N 
ATOM     25  N2  UNK     1      17.751  10.522  -4.003  1.00  0.00     0.006 NA
ATOM     26  N3  UNK     1      17.511  10.537  -5.309  1.00  0.00    -0.158 NA
ATOM     27  C3  UNK     1      16.310  11.161  -5.514  1.00  0.00     0.102 A 
ATOM     28  C4  UNK     1      15.605  11.421  -6.697  1.00  0.00     0.035 A 
ATOM     29  C8  UNK     1      15.778  11.568  -4.297  1.00  0.00     0.079 A 
ATOM     30  C5  UNK     1      14.374  12.087  -6.608  1.00  0.00     0.002 A 
ATOM     31  C6  UNK     1      13.869  12.498  -5.373  1.00  0.00     0.002 A 
ATOM     32  C7  UNK     1      14.563  12.251  -4.184  1.00  0.00     0.033 A 
ENDBRANCH  23  24
ENDBRANCH   2  23
TORSDOF 6
ENDMDL
MODEL 2
REMARK VINA RESULT:      -7.0     15.869     18.301
REMARK  6 active torsions:
REMARK  status: ('A' for Active; 'I' for Inactive)
REMARK    1  A    between atoms: C1_2  and  C2_3 
REMARK       I    between atoms: C1_2  and  N4_13 
REMARK    2  A    between atoms: C2_3  and  N1_4 
REMARK    3  A    between atoms: N4_13  and  C9_14 
REMARK    4  A    between atoms: N4_13  and  C16_22 
REMARK    5  A    between atoms: C9_14  and  C10_15 
REMARK    6  A    between atoms: C19_25  and  C20_26 
ROOT
ATOM      1  O1  UNK     1      15.359   2.605  11.604  1.00  0.00    -0.271 OA
ATOM      2  C1  UNK     1      16.452   3.110  11.334  1.00  0.00     0.245 C 
ATOM      3  N4  UNK     1      16.778   3.483  10.025  1.00  0.00    -0.297 N 
ENDROOT
BRANCH   3   4
ATOM      4  C9  UNK     1      15.753   3.322   8.982  1.00  0.00     0.172 C 
BRANCH   4   5
ATOM      5  C10 UNK     1      15.527   1.887   8.555  1.00  0.00    -0.038 A 
ATOM      6  C11 UNK     1      16.492   1.205   7.799  1.00  0.00     0.009 A 
ATOM      7  C12 UNK     1      16.289  -0.119   7.403  1.00  0.00     0.002 A 
ATOM      8  C13 UNK     1      15.113  -0.778   7.751  1.00  0.00     0.024 A 
ATOM      9  C14 UNK     1      14.137  -0.104   8.481  1.00  0.00     0.034 A 
ATOM     10 Cl1  UNK     1      12.676  -0.912   8.900  1.00  0.00    -0.084 Cl
ATOM     11  C15 UNK     1      14.333   1.221   8.875  1.00  0.00     0.032 A 
ENDBRANCH   4   5
ENDBRANCH   3   4
BRANCH   3  12
ATOM     12  C16 UNK     1      18.132   3.596   9.598  1.00  0.00     0.132 A 
ATOM     13  C17 UNK     1      19.040   2.567   9.815  1.00  0.00     0.051 A 
ATOM     14  C18 UNK     1      20.394   2.777   9.547  1.00  0.00     0.017 A 
ATOM     15  C19 UNK     1      20.812   4.015   9.072  1.00  0.00    -0.005 A 
ATOM     16  C23 UNK     1      19.837   4.959   8.807  1.00  0.00     0.131 A 
ATOM     17  N7  UNK     1      18.516   4.770   9.053  1.00  0.00    -0.242 NA
BRANCH  15  18
ATOM     18  C20 UNK     1      22.253   4.329   8.912  1.00  0.00     0.014 A 
ATOM     19  C21 UNK     1      23.069   5.146   9.662  1.00  0.00     0.154 A 
ATOM     20  N5  UNK     1      24.343   5.145   9.246  1.00  0.00    -0.162 NA
ATOM     21  N6  UNK     1      24.401   4.317   8.185  1.00  0.00    -0.162 NA
ATOM     22  C22 UNK     1      23.161   3.843   8.000  1.00  0.00     0.154 A 
ENDBRANCH  15  18
ENDBRANCH   3  12
BRANCH   2  23
ATOM     23  C2  UNK     1      17.482   3.383  12.427  1.00  0.00     0.250 C 
BRANCH  23  24
ATOM     24  N1  UNK     1      17.653   4.803  12.658  1.00  0.00    -0.263 N 
ATOM     25  N2  UNK     1      16.572   5.602  12.799  1.00  0.00     0.006 NA
ATOM     26  N3  UNK     1      17.013   6.844  12.952  1.00  0.00    -0.158 NA
ATOM     27  C3  UNK     1      18.380   6.822  12.887  1.00  0.00     0.102 A 
ATOM     28  C4  UNK     1      19.318   7.858  13.002  1.00  0.00     0.035 A 
ATOM     29  C8  UNK     1      18.819   5.522  12.671  1.00  0.00     0.079 A 
ATOM     30  C5  UNK     1      20.679   7.540  12.894  1.00  0.00     0.002 A 
ATOM     31  C6  UNK     1      21.093   6.226  12.662  1.00  0.00     0.002 A 
ATOM     32  C7  UNK     1      20.169   5.183  12.542  1.00  0.00     0.033 A 
ENDBRANCH  23  24
ENDBRANCH   2  23
TORSDOF 6
ENDMDL
MODEL 3
REMARK VINA RESULT:      -6.8     20.905     24.951
REMARK  6 active torsions:
REMARK  status: ('A' for Active; 'I' for Inactive)
REMARK    1  A    between atoms: C1_2  and  C2_3 
REMARK       I    between atoms: C1_2  and  N4_13 
REMARK    2  A    between atoms: C2_3  and  N1_4 
REMARK    3  A    between atoms: N4_13  and  C9_14 
REMARK    4  A    between atoms: N4_13  and  C16_22 
REMARK    5  A    between atoms: C9_14  and  C10_15 
REMARK    6  A    between atoms: C19_25  and  C20_26 
ROOT
ATOM      1  O1  UNK     1       4.785   0.283 -17.931  1.00  0.00    -0.271 OA
ATOM      2  C1  UNK     1       3.755   0.608 -17.335  1.00  0.00     0.245 C 
ATOM      3  N4  UNK     1       2.541   0.771 -18.013  1.00  0.00    -0.297 N 
ENDROOT
BRANCH   3   4
ATOM      4  C9  UNK     1       2.508   0.478 -19.455  1.00  0.00     0.172 C 
BRANCH   4   5
ATOM      5  C10 UNK     1       1.979  -0.900 -19.791  1.00  0.00    -0.038 A 
ATOM      6  C11 UNK     1       0.928  -1.060 -20.707  1.00  0.00     0.009 A 
ATOM      7  C12 UNK     1       0.435  -2.329 -21.019  1.00  0.00     0.002 A 
ATOM      8  C13 UNK     1       0.983  -3.458 -20.415  1.00  0.00     0.024 A 
ATOM      9  C14 UNK     1       2.010  -3.311 -19.486  1.00  0.00     0.034 A 
ATOM     10 Cl1  UNK     1       2.678  -4.703 -18.727  1.00  0.00    -0.084 Cl
ATOM     11  C15 UNK     1       2.502  -2.044 -19.166  1.00  0.00     0.032 A 
ENDBRANCH   4   5
ENDBRANCH   3   4
BRANCH   3  12
ATOM     12  C16 UNK     1       1.498   1.586 -17.488  1.00  0.00     0.132 A 
ATOM     13  C17 UNK     1       0.558   1.067 -16.606  1.00  0.00     0.051 A 
ATOM     14  C18 UNK     1      -0.550   1.838 -16.250  1.00  0.00     0.017 A 
ATOM     15  C19 UNK     1      -0.698   3.111 -16.788  1.00  0.00    -0.005 A 
ATOM     16  C23 UNK     1       0.321   3.585 -17.596  1.00  0.00     0.131 A 
ATOM     17  N7  UNK     1       1.410   2.853 -17.945  1.00  0.00    -0.242 NA
BRANCH  15  18
ATOM     18  C20 UNK     1      -1.928   3.906 -16.554  1.00  0.00     0.014 A 
ATOM     19  C21 UNK     1      -2.428   4.987 -17.244  1.00  0.00     0.154 A 
ATOM     20  N5  UNK     1      -3.605   5.418 -16.769  1.00  0.00    -0.162 NA
ATOM     21  N6  UNK     1      -3.914   4.622 -15.727  1.00  0.00    -0.162 NA
ATOM     22  C22 UNK     1      -2.916   3.735 -15.612  1.00  0.00     0.154 A 
ENDBRANCH  15  18
ENDBRANCH   3  12
BRANCH   2  23
ATOM     23  C2  UNK     1       3.753   0.808 -15.820  1.00  0.00     0.250 C 
BRANCH  23  24
ATOM     24  N1  UNK     1       4.840   1.667 -15.394  1.00  0.00    -0.263 N 
ATOM     25  N2  UNK     1       5.832   1.172 -14.621  1.00  0.00     0.006 NA
ATOM     26  N3  UNK     1       6.658   2.173 -14.346  1.00  0.00    -0.158 NA
ATOM     27  C3  UNK     1       6.166   3.307 -14.936  1.00  0.00     0.102 A 
ATOM     28  C4  UNK     1       6.665   4.616 -14.959  1.00  0.00     0.035 A 
ATOM     29  C8  UNK     1       4.980   3.015 -15.596  1.00  0.00     0.079 A 
ATOM     30  C5  UNK     1       5.941   5.594 -15.656  1.00  0.00     0.002 A 
ATOM     31  C6  UNK     1       4.743   5.276 -16.299  1.00  0.00     0.002 A 
ATOM     32  C7  UNK     1       4.230   3.975 -16.282  1.00  0.00     0.033 A 
ENDBRANCH  23  24
ENDBRANCH   2  23
TORSDOF 6
ENDMDL
MODEL 4
REMARK VINA RESULT:      -6.8     20.620     24.813
REMARK  6 active torsions:
REMARK  status: ('A' for Active; 'I' for Inactive)
REMARK    1  A    between atoms: C1_2  and  C2_3 
REMARK       I    between atoms: C1_2  and  N4_13 
REMARK    2  A    between atoms: C2_3  and  N1_4 
REMARK    3  A    between atoms: N4_13  and  C9_14 
REMARK    4  A    between atoms: N4_13  and  C16_22 
REMARK    5  A    between atoms: C9_14  and  C10_15 
REMARK    6  A    between atoms: C19_25  and  C20_26 
ROOT
ATOM      1  O1  UNK     1       2.796   0.551 -17.982  1.00  0.00    -0.271 OA
ATOM      2  C1  UNK     1       3.775  -0.195 -17.894  1.00  0.00     0.245 C 
ATOM      3  N4  UNK     1       4.541  -0.256 -16.724  1.00  0.00    -0.297 N 
ENDROOT
BRANCH   3   4
ATOM      4  C9  UNK     1       4.108   0.545 -15.568  1.00  0.00     0.172 C 
BRANCH   4   5
ATOM      5  C10 UNK     1       4.798   1.888 -15.456  1.00  0.00    -0.038 A 
ATOM      6  C11 UNK     1       5.973   2.027 -14.703  1.00  0.00     0.009 A 
ATOM      7  C12 UNK     1       6.613   3.264 -14.595  1.00  0.00     0.002 A 
ATOM      8  C13 UNK     1       6.082   4.382 -15.234  1.00  0.00     0.024 A 
ATOM      9  C14 UNK     1       4.903   4.261 -15.964  1.00  0.00     0.034 A 
ATOM     10 Cl1  UNK     1       4.237   5.644 -16.742  1.00  0.00    -0.084 Cl
ATOM     11  C15 UNK     1       4.256   3.028 -16.071  1.00  0.00     0.032 A 
ENDBRANCH   4   5
ENDBRANCH   3   4
BRANCH   3  12
ATOM     12  C16 UNK     1       5.895  -0.696 -16.743  1.00  0.00     0.132 A 
ATOM     13  C17 UNK     1       6.838  -0.080 -17.557  1.00  0.00     0.051 A 
ATOM     14  C18 UNK     1       8.108  -0.644 -17.687  1.00  0.00     0.017 A 
ATOM     15  C19 UNK     1       8.408  -1.816 -17.002  1.00  0.00    -0.005 A 
ATOM     16  C23 UNK     1       7.443  -2.323 -16.151  1.00  0.00     0.131 A 
ATOM     17  N7  UNK     1       6.206  -1.784 -16.006  1.00  0.00    -0.242 NA
BRANCH  15  18
ATOM     18  C20 UNK     1       9.691  -2.528 -17.223  1.00  0.00     0.014 A 
ATOM     19  C21 UNK     1       9.932  -3.768 -17.770  1.00  0.00     0.154 A 
ATOM     20  N5  UNK     1      11.238  -4.061 -17.858  1.00  0.00    -0.162 NA
ATOM     21  N6  UNK     1      11.904  -3.005 -17.353  1.00  0.00    -0.162 NA
ATOM     22  C22 UNK     1      10.979  -2.108 -16.982  1.00  0.00     0.154 A 
ENDBRANCH  15  18
ENDBRANCH   3  12
BRANCH   2  23
ATOM     23  C2  UNK     1       4.169  -1.113 -19.049  1.00  0.00     0.250 C 
BRANCH  23  24
ATOM     24  N1  UNK     1       3.385  -2.331 -19.056  1.00  0.00    -0.263 N 
ATOM     25  N2  UNK     1       3.669  -3.325 -18.186  1.00  0.00     0.006 NA
ATOM     26  N3  UNK     1       2.834  -4.326 -18.439  1.00  0.00    -0.158 NA
ATOM     27  C3  UNK     1       2.036  -3.960 -19.489  1.00  0.00     0.102 A 
ATOM     28  C4  UNK     1       0.995  -4.646 -20.129  1.00  0.00     0.035 A 
ATOM     29  C8  UNK     1       2.387  -2.688 -19.924  1.00  0.00     0.079 A 
ATOM     30  C5  UNK     1       0.337  -4.016 -21.196  1.00  0.00     0.002 A 
ATOM     31  C6  UNK     1       0.720  -2.742 -21.623  1.00  0.00     0.002 A 
ATOM     32  C7  UNK     1       1.760  -2.047 -20.997  1.00  0.00     0.033 A 
ENDBRANCH  23  24
ENDBRANCH   2  23
TORSDOF 6
ENDMDL
MODEL 5
REMARK VINA RESULT:      -6.8     16.858     20.018
REMARK  6 active torsions:
REMARK  status: ('A' for Active; 'I' for Inactive)
REMARK    1  A    between atoms: C1_2  and  C2_3 
REMARK       I    between atoms: C1_2  and  N4_13 
REMARK    2  A    between atoms: C2_3  and  N1_4 
REMARK    3  A    between atoms: N4_13  and  C9_14 
REMARK    4  A    between atoms: N4_13  and  C16_22 
REMARK    5  A    between atoms: C9_14  and  C10_15 
REMARK    6  A    between atoms: C19_25  and  C20_26 
ROOT
ATOM      1  O1  UNK     1       3.444   8.595 -17.812  1.00  0.00    -0.271 OA
ATOM      2  C1  UNK     1       3.726   7.741 -16.967  1.00  0.00     0.245 C 
ATOM      3  N4  UNK     1       4.814   6.878 -17.139  1.00  0.00    -0.297 N 
ENDROOT
BRANCH   3   4
ATOM      4  C9  UNK     1       5.662   7.059 -18.328  1.00  0.00     0.172 C 
BRANCH   4   5
ATOM      5  C10 UNK     1       7.093   7.438 -18.013  1.00  0.00    -0.038 A 
ATOM      6  C11 UNK     1       8.162   6.785 -18.644  1.00  0.00     0.009 A 
ATOM      7  C12 UNK     1       9.484   7.130 -18.355  1.00  0.00     0.002 A 
ATOM      8  C13 UNK     1       9.757   8.131 -17.426  1.00  0.00     0.024 A 
ATOM      9  C14 UNK     1       8.705   8.771 -16.776  1.00  0.00     0.034 A 
ATOM     10 Cl1  UNK     1       9.040   9.997 -15.616  1.00  0.00    -0.084 Cl
ATOM     11  C15 UNK     1       7.381   8.425 -17.056  1.00  0.00     0.032 A 
ENDBRANCH   4   5
ENDBRANCH   3   4
BRANCH   3  12
ATOM     12  C16 UNK     1       4.878   5.619 -16.478  1.00  0.00     0.132 A 
ATOM     13  C17 UNK     1       5.911   5.323 -15.597  1.00  0.00     0.051 A 
ATOM     14  C18 UNK     1       6.045   4.024 -15.105  1.00  0.00     0.017 A 
ATOM     15  C19 UNK     1       5.143   3.045 -15.507  1.00  0.00    -0.005 A 
ATOM     16  C23 UNK     1       4.096   3.437 -16.322  1.00  0.00     0.131 A 
ATOM     17  N7  UNK     1       3.946   4.698 -16.804  1.00  0.00    -0.242 NA
BRANCH  15  18
ATOM     18  C20 UNK     1       5.331   1.624 -15.125  1.00  0.00     0.014 A 
ATOM     19  C21 UNK     1       5.071   0.475 -15.837  1.00  0.00     0.154 A 
ATOM     20  N5  UNK     1       5.420  -0.642 -15.182  1.00  0.00    -0.162 NA
ATOM     21  N6  UNK     1       5.922  -0.251 -13.995  1.00  0.00    -0.162 NA
ATOM     22  C22 UNK     1       5.863   1.088 -13.975  1.00  0.00     0.154 A 
ENDBRANCH  15  18
ENDBRANCH   3  12
BRANCH   2  23
ATOM     23  C2  UNK     1       2.919   7.616 -15.676  1.00  0.00     0.250 C 
BRANCH  23  24
ATOM     24  N1  UNK     1       2.995   8.824 -14.879  1.00  0.00    -0.263 N 
ATOM     25  N2  UNK     1       1.922   9.640 -14.780  1.00  0.00     0.006 NA
ATOM     26  N3  UNK     1       2.280  10.679 -14.037  1.00  0.00    -0.158 NA
ATOM     27  C3  UNK     1       3.594  10.520 -13.686  1.00  0.00     0.102 A 
ATOM     28  C4  UNK     1       4.436  11.322 -12.904  1.00  0.00     0.035 A 
ATOM     29  C8  UNK     1       4.088   9.345 -14.238  1.00  0.00     0.079 A 
ATOM     30  C5  UNK     1       5.759  10.905 -12.704  1.00  0.00     0.002 A 
ATOM     31  C6  UNK     1       6.235   9.726 -13.283  1.00  0.00     0.002 A 
ATOM     32  C7  UNK     1       5.408   8.917 -14.069  1.00  0.00     0.033 A 
ENDBRANCH  23  24
ENDBRANCH   2  23
TORSDOF 6
ENDMDL
MODEL 6
REMARK VINA RESULT:      -6.7     21.556     25.109
REMARK  6 active torsions:
REMARK  status: ('A' for Active; 'I' for Inactive)
REMARK    1  A    between atoms: C1_2  and  C2_3 
REMARK       I    between atoms: C1_2  and  N4_13 
REMARK    2  A    between atoms: C2_3  and  N1_4 
REMARK    3  A    between atoms: N4_13  and  C9_14 
REMARK    4  A    between atoms: N4_13  and  C16_22 
REMARK    5  A    between atoms: C9_14  and  C10_15 
REMARK    6  A    between atoms: C19_25  and  C20_26 
ROOT
ATOM      1  O1  UNK     1       3.366   0.851 -18.977  1.00  0.00    -0.271 OA
ATOM      2  C1  UNK     1       2.444   1.576 -18.594  1.00  0.00     0.245 C 
ATOM      3  N4  UNK     1       2.225   1.816 -17.232  1.00  0.00    -0.297 N 
ENDROOT
BRANCH   3   4
ATOM      4  C9  UNK     1       3.169   1.234 -16.264  1.00  0.00     0.172 C 
BRANCH   4   5
ATOM      5  C10 UNK     1       4.260   2.185 -15.820  1.00  0.00    -0.038 A 
ATOM      6  C11 UNK     1       5.308   1.738 -15.002  1.00  0.00     0.009 A 
ATOM      7  C12 UNK     1       6.317   2.612 -14.588  1.00  0.00     0.002 A 
ATOM      8  C13 UNK     1       6.288   3.947 -14.982  1.00  0.00     0.024 A 
ATOM      9  C14 UNK     1       5.240   4.407 -15.775  1.00  0.00     0.034 A 
ATOM     10 Cl1  UNK     1       5.194   6.061 -16.251  1.00  0.00    -0.084 Cl
ATOM     11  C15 UNK     1       4.226   3.540 -16.187  1.00  0.00     0.032 A 
ENDBRANCH   4   5
ENDBRANCH   3   4
BRANCH   3  12
ATOM     12  C16 UNK     1       0.948   2.212 -16.742  1.00  0.00     0.132 A 
ATOM     13  C17 UNK     1       0.040   1.273 -16.267  1.00  0.00     0.051 A 
ATOM     14  C18 UNK     1      -1.263   1.670 -15.962  1.00  0.00     0.017 A 
ATOM     15  C19 UNK     1      -1.632   2.999 -16.140  1.00  0.00    -0.005 A 
ATOM     16  C23 UNK     1      -0.648   3.886 -16.540  1.00  0.00     0.131 A 
ATOM     17  N7  UNK     1       0.625   3.519 -16.834  1.00  0.00    -0.242 NA
BRANCH  15  18
ATOM     18  C20 UNK     1      -3.039   3.435 -15.968  1.00  0.00     0.014 A 
ATOM     19  C21 UNK     1      -4.211   2.798 -16.308  1.00  0.00     0.154 A 
ATOM     20  N5  UNK     1      -5.307   3.480 -15.948  1.00  0.00    -0.162 NA
ATOM     21  N6  UNK     1      -4.878   4.612 -15.356  1.00  0.00    -0.162 NA
ATOM     22  C22 UNK     1      -3.538   4.571 -15.375  1.00  0.00     0.154 A 
ENDBRANCH  15  18
ENDBRANCH   3  12
BRANCH   2  23
ATOM     23  C2  UNK     1       1.525   2.273 -19.594  1.00  0.00     0.250 C 
BRANCH  23  24
ATOM     24  N1  UNK     1       0.273   1.562 -19.756  1.00  0.00    -0.263 N 
ATOM     25  N2  UNK     1       0.269   0.217 -19.880  1.00  0.00     0.006 NA
ATOM     26  N3  UNK     1      -0.991  -0.162 -20.058  1.00  0.00    -0.158 NA
ATOM     27  C3  UNK     1      -1.776   0.959 -20.065  1.00  0.00     0.102 A 
ATOM     28  C4  UNK     1      -3.164   1.103 -20.204  1.00  0.00     0.035 A 
ATOM     29  C8  UNK     1      -0.984   2.088 -19.898  1.00  0.00     0.079 A 
ATOM     30  C5  UNK     1      -3.707   2.395 -20.170  1.00  0.00     0.002 A 
ATOM     31  C6  UNK     1      -2.886   3.515 -20.017  1.00  0.00     0.002 A 
ATOM     32  C7  UNK     1      -1.500   3.387 -19.880  1.00  0.00     0.033 A 
ENDBRANCH  23  24
ENDBRANCH   2  23
TORSDOF 6
ENDMDL
MODEL 7
REMARK VINA RESULT:      -6.7     20.641     24.479
REMARK  6 active torsions:
REMARK  status: ('A' for Active; 'I' for Inactive)
REMARK    1  A    between atoms: C1_2  and  C2_3 
REMARK       I    between atoms: C1_2  and  N4_13 
REMARK    2  A    between atoms: C2_3  and  N1_4 
REMARK    3  A    between atoms: N4_13  and  C9_14 
REMARK    4  A    between atoms: N4_13  and  C16_22 
REMARK    5  A    between atoms: C9_14  and  C10_15 
REMARK    6  A    between atoms: C19_25  and  C20_26 
ROOT
ATOM      1  O1  UNK     1       6.322   0.214 -15.962  1.00  0.00    -0.271 OA
ATOM      2  C1  UNK     1       5.492   0.548 -16.812  1.00  0.00     0.245 C 
ATOM      3  N4  UNK     1       4.605   1.607 -16.586  1.00  0.00    -0.297 N 
ENDROOT
BRANCH   3   4
ATOM      4  C9  UNK     1       4.731   2.362 -15.329  1.00  0.00     0.172 C 
BRANCH   4   5
ATOM      5  C10 UNK     1       5.280   3.762 -15.504  1.00  0.00    -0.038 A 
ATOM      6  C11 UNK     1       6.522   4.117 -14.956  1.00  0.00     0.009 A 
ATOM      7  C12 UNK     1       7.032   5.408 -15.114  1.00  0.00     0.002 A 
ATOM      8  C13 UNK     1       6.304   6.365 -15.816  1.00  0.00     0.024 A 
ATOM      9  C14 UNK     1       5.060   6.031 -16.344  1.00  0.00     0.034 A 
ATOM     10 Cl1  UNK     1       4.151   7.216 -17.200  1.00  0.00    -0.084 Cl
ATOM     11  C15 UNK     1       4.542   4.744 -16.185  1.00  0.00     0.032 A 
ENDBRANCH   4   5
ENDBRANCH   3   4
BRANCH   3  12
ATOM     12  C16 UNK     1       3.368   1.703 -17.284  1.00  0.00     0.132 A 
ATOM     13  C17 UNK     1       2.222   1.084 -16.801  1.00  0.00     0.051 A 
ATOM     14  C18 UNK     1       1.074   1.046 -17.594  1.00  0.00     0.017 A 
ATOM     15  C19 UNK     1       1.097   1.627 -18.857  1.00  0.00    -0.005 A 
ATOM     16  C23 UNK     1       2.250   2.293 -19.233  1.00  0.00     0.131 A 
ATOM     17  N7  UNK     1       3.373   2.346 -18.471  1.00  0.00    -0.242 NA
BRANCH  15  18
ATOM     18  C20 UNK     1      -0.049   1.485 -19.789  1.00  0.00     0.014 A 
ATOM     19  C21 UNK     1      -0.891   0.416 -19.999  1.00  0.00     0.154 A 
ATOM     20  N5  UNK     1      -1.857   0.673 -20.893  1.00  0.00    -0.162 NA
ATOM     21  N6  UNK     1      -1.668   1.940 -21.310  1.00  0.00    -0.162 NA
ATOM     22  C22 UNK     1      -0.598   2.406 -20.650  1.00  0.00     0.154 A 
ENDBRANCH  15  18
ENDBRANCH   3  12
BRANCH   2  23
ATOM     23  C2  UNK     1       5.426  -0.158 -18.164  1.00  0.00     0.250 C 
BRANCH  23  24
ATOM     24  N1  UNK     1       4.728  -1.424 -18.073  1.00  0.00    -0.263 N 
ATOM     25  N2  UNK     1       5.156  -2.373 -17.210  1.00  0.00     0.006 NA
ATOM     26  N3  UNK     1       4.372  -3.433 -17.365  1.00  0.00    -0.158 NA
ATOM     27  C3  UNK     1       3.460  -3.149 -18.346  1.00  0.00     0.102 A 
ATOM     28  C4  UNK     1       2.414  -3.920 -18.873  1.00  0.00     0.035 A 
ATOM     29  C8  UNK     1       3.683  -1.870 -18.839  1.00  0.00     0.079 A 
ATOM     30  C5  UNK     1       1.623  -3.365 -19.889  1.00  0.00     0.002 A 
ATOM     31  C6  UNK     1       1.879  -2.081 -20.377  1.00  0.00     0.002 A 
ATOM     32  C7  UNK     1       2.921  -1.302 -19.864  1.00  0.00     0.033 A 
ENDBRANCH  23  24
ENDBRANCH   2  23
TORSDOF 6
ENDMDL
MODEL 8
REMARK VINA RESULT:      -6.7      1.732      2.224
REMARK  6 active torsions:
REMARK  status: ('A' for Active; 'I' for Inactive)
REMARK    1  A    between atoms: C1_2  and  C2_3 
REMARK       I    between atoms: C1_2  and  N4_13 
REMARK    2  A    between atoms: C2_3  and  N1_4 
REMARK    3  A    between atoms: N4_13  and  C9_14 
REMARK    4  A    between atoms: N4_13  and  C16_22 
REMARK    5  A    between atoms: C9_14  and  C10_15 
REMARK    6  A    between atoms: C19_25  and  C20_26 
ROOT
ATOM      1  O1  UNK     1      20.591  12.736  -2.829  1.00  0.00    -0.271 OA
ATOM      2  C1  UNK     1      19.645  13.473  -3.118  1.00  0.00     0.245 C 
ATOM      3  N4  UNK     1      19.211  14.478  -2.246  1.00  0.00    -0.297 N 
ENDROOT
BRANCH   3   4
ATOM      4  C9  UNK     1      19.961  14.682  -0.996  1.00  0.00     0.172 C 
BRANCH   4   5
ATOM      5  C10 UNK     1      21.104  15.667  -1.117  1.00  0.00    -0.038 A 
ATOM      6  C11 UNK     1      20.873  16.982  -1.550  1.00  0.00     0.009 A 
ATOM      7  C12 UNK     1      21.924  17.894  -1.664  1.00  0.00     0.002 A 
ATOM      8  C13 UNK     1      23.224  17.503  -1.353  1.00  0.00     0.024 A 
ATOM      9  C14 UNK     1      23.470  16.195  -0.945  1.00  0.00     0.034 A 
ATOM     10 Cl1  UNK     1      25.077  15.705  -0.574  1.00  0.00    -0.084 Cl
ATOM     11  C15 UNK     1      22.423  15.277  -0.834  1.00  0.00     0.032 A 
ENDBRANCH   4   5
ENDBRANCH   3   4
BRANCH   3  12
ATOM     12  C16 UNK     1      17.886  14.994  -2.304  1.00  0.00     0.132 A 
ATOM     13  C17 UNK     1      17.604  16.169  -2.991  1.00  0.00     0.051 A 
ATOM     14  C18 UNK     1      16.336  16.742  -2.881  1.00  0.00     0.017 A 
ATOM     15  C19 UNK     1      15.377  16.131  -2.081  1.00  0.00    -0.005 A 
ATOM     16  C23 UNK     1      15.711  14.924  -1.494  1.00  0.00     0.131 A 
ATOM     17  N7  UNK     1      16.935  14.347  -1.597  1.00  0.00    -0.242 NA
BRANCH  15  18
ATOM     18  C20 UNK     1      14.069  16.779  -1.820  1.00  0.00     0.014 A 
ATOM     19  C21 UNK     1      13.555  17.962  -2.302  1.00  0.00     0.154 A 
ATOM     20  N5  UNK     1      12.305  18.205  -1.883  1.00  0.00    -0.162 NA
ATOM     21  N6  UNK     1      11.957  17.171  -1.092  1.00  0.00    -0.162 NA
ATOM     22  C22 UNK     1      13.007  16.339  -1.064  1.00  0.00     0.154 A 
ENDBRANCH  15  18
ENDBRANCH   3  12
BRANCH   2  23
ATOM     23  C2  UNK     1      18.929  13.342  -4.461  1.00  0.00     0.250 C 
BRANCH  23  24
ATOM     24  N1  UNK     1      17.905  12.317  -4.424  1.00  0.00    -0.263 N 
ATOM     25  N2  UNK     1      18.246  11.027  -4.212  1.00  0.00     0.006 NA
ATOM     26  N3  UNK     1      17.132  10.307  -4.272  1.00  0.00    -0.158 NA
ATOM     27  C3  UNK     1      16.091  11.154  -4.543  1.00  0.00     0.102 A 
ATOM     28  C4  UNK     1      14.721  10.900  -4.693  1.00  0.00     0.035 A 
ATOM     29  C8  UNK     1      16.565  12.453  -4.672  1.00  0.00     0.079 A 
ATOM     30  C5  UNK     1      13.869  11.979  -4.970  1.00  0.00     0.002 A 
ATOM     31  C6  UNK     1      14.374  13.274  -5.110  1.00  0.00     0.002 A 
ATOM     32  C7  UNK     1      15.739  13.542  -4.967  1.00  0.00     0.033 A 
ENDBRANCH  23  24
ENDBRANCH   2  23
TORSDOF 6
ENDMDL
MODEL 9
REMARK VINA RESULT:      -6.7      3.535      8.265
REMARK  6 active torsions:
REMARK  status: ('A' for Active; 'I' for Inactive)
REMARK    1  A    between atoms: C1_2  and  C2_3 
REMARK       I    between atoms: C1_2  and  N4_13 
REMARK    2  A    between atoms: C2_3  and  N1_4 
REMARK    3  A    between atoms: N4_13  and  C9_14 
REMARK    4  A    between atoms: N4_13  and  C16_22 
REMARK    5  A    between atoms: C9_14  and  C10_15 
REMARK    6  A    between atoms: C19_25  and  C20_26 
ROOT
ATOM      1  O1  UNK     1      15.016  14.196  -2.155  1.00  0.00    -0.271 OA
ATOM      2  C1  UNK     1      16.114  13.663  -2.331  1.00  0.00     0.245 C 
ATOM      3  N4  UNK     1      16.657  13.519  -3.613  1.00  0.00    -0.297 N 
ENDROOT
BRANCH   3   4
ATOM      4  C9  UNK     1      15.911  14.084  -4.749  1.00  0.00     0.172 C 
BRANCH   4   5
ATOM      5  C10 UNK     1      15.152  13.055  -5.560  1.00  0.00    -0.038 A 
ATOM      6  C11 UNK     1      15.733  12.465  -6.692  1.00  0.00     0.009 A 
ATOM      7  C12 UNK     1      15.036  11.517  -7.444  1.00  0.00     0.002 A 
ATOM      8  C13 UNK     1      13.743  11.150  -7.078  1.00  0.00     0.024 A 
ATOM      9  C14 UNK     1      13.146  11.746  -5.971  1.00  0.00     0.034 A 
ATOM     10 Cl1  UNK     1      11.544  11.306  -5.526  1.00  0.00    -0.084 Cl
ATOM     11  C15 UNK     1      13.837  12.699  -5.219  1.00  0.00     0.032 A 
ENDBRANCH   4   5
ENDBRANCH   3   4
BRANCH   3  12
ATOM     12  C16 UNK     1      17.630  12.520  -3.902  1.00  0.00     0.132 A 
ATOM     13  C17 UNK     1      18.886  12.863  -4.389  1.00  0.00     0.051 A 
ATOM     14  C18 UNK     1      19.750  11.859  -4.830  1.00  0.00     0.017 A 
ATOM     15  C19 UNK     1      19.338  10.532  -4.778  1.00  0.00    -0.005 A 
ATOM     16  C23 UNK     1      18.106  10.268  -4.207  1.00  0.00     0.131 A 
ATOM     17  N7  UNK     1      17.257  11.230  -3.766  1.00  0.00    -0.242 NA
BRANCH  15  18
ATOM     18  C20 UNK     1      20.162   9.449  -5.368  1.00  0.00     0.014 A 
ATOM     19  C21 UNK     1      21.023   8.562  -4.762  1.00  0.00     0.154 A 
ATOM     20  N5  UNK     1      21.560   7.679  -5.616  1.00  0.00    -0.162 NA
ATOM     21  N6  UNK     1      21.063   7.972  -6.834  1.00  0.00    -0.162 NA
ATOM     22  C22 UNK     1      20.240   9.018  -6.672  1.00  0.00     0.154 A 
ENDBRANCH  15  18
ENDBRANCH   3  12
BRANCH   2  23
ATOM     23  C2  UNK     1      16.947  13.172  -1.149  1.00  0.00     0.250 C 
BRANCH  23  24
ATOM     24  N1  UNK     1      17.568  14.272  -0.438  1.00  0.00    -0.263 N 
ATOM     25  N2  UNK     1      16.815  15.106   0.311  1.00  0.00     0.006 NA
ATOM     26  N3  UNK     1      17.623  16.036   0.806  1.00  0.00    -0.158 NA
ATOM     27  C3  UNK     1      18.888  15.790   0.343  1.00  0.00     0.102 A 
ATOM     28  C4  UNK     1      20.095  16.464   0.579  1.00  0.00     0.035 A 
ATOM     29  C8  UNK     1      18.877  14.674  -0.483  1.00  0.00     0.079 A 
ATOM     30  C5  UNK     1      21.259  15.980  -0.035  1.00  0.00     0.002 A 
ATOM     31  C6  UNK     1      21.218  14.864  -0.873  1.00  0.00     0.002 A 
ATOM     32  C7  UNK     1      20.021  14.184  -1.121  1.00  0.00     0.033 A 
ENDBRANCH  23  24
ENDBRANCH   2  23
TORSDOF 6
ENDMDL
MODEL 10
REMARK VINA RESULT:      -6.6     21.989     25.609
REMARK  6 active torsions:
REMARK  status: ('A' for Active; 'I' for Inactive)
REMARK    1  A    between atoms: C1_2  and  C2_3 
REMARK       I    between atoms: C1_2  and  N4_13 
REMARK    2  A    between atoms: C2_3  and  N1_4 
REMARK    3  A    between atoms: N4_13  and  C9_14 
REMARK    4  A    between atoms: N4_13  and  C16_22 
REMARK    5  A    between atoms: C9_14  and  C10_15 
REMARK    6  A    between atoms: C19_25  and  C20_26 
ROOT
ATOM      1  O1  UNK     1       5.084  -1.448 -18.779  1.00  0.00    -0.271 OA
ATOM      2  C1  UNK     1       3.983  -0.890 -18.760  1.00  0.00     0.245 C 
ATOM      3  N4  UNK     1       3.869   0.491 -18.562  1.00  0.00    -0.297 N 
ENDROOT
BRANCH   3   4
ATOM      4  C9  UNK     1       5.107   1.279 -18.445  1.00  0.00     0.172 C 
BRANCH   4   5
ATOM      5  C10 UNK     1       5.517   1.573 -17.018  1.00  0.00    -0.038 A 
ATOM      6  C11 UNK     1       5.505   2.887 -16.526  1.00  0.00     0.009 A 
ATOM      7  C12 UNK     1       5.884   3.164 -15.210  1.00  0.00     0.002 A 
ATOM      8  C13 UNK     1       6.287   2.130 -14.369  1.00  0.00     0.024 A 
ATOM      9  C14 UNK     1       6.326   0.825 -14.852  1.00  0.00     0.034 A 
ATOM     10 Cl1  UNK     1       6.839  -0.451 -13.818  1.00  0.00    -0.084 Cl
ATOM     11  C15 UNK     1       5.954   0.544 -16.168  1.00  0.00     0.032 A 
ENDBRANCH   4   5
ENDBRANCH   3   4
BRANCH   3  12
ATOM     12  C16 UNK     1       2.673   1.075 -18.057  1.00  0.00     0.132 A 
ATOM     13  C17 UNK     1       2.338   0.974 -16.712  1.00  0.00     0.051 A 
ATOM     14  C18 UNK     1       1.079   1.399 -16.284  1.00  0.00     0.017 A 
ATOM     15  C19 UNK     1       0.180   1.914 -17.211  1.00  0.00    -0.005 A 
ATOM     16  C23 UNK     1       0.618   2.055 -18.515  1.00  0.00     0.131 A 
ATOM     17  N7  UNK     1       1.841   1.654 -18.948  1.00  0.00    -0.242 NA
BRANCH  15  18
ATOM     18  C20 UNK     1      -1.215   2.241 -16.827  1.00  0.00     0.014 A 
ATOM     19  C21 UNK     1      -1.878   2.032 -15.639  1.00  0.00     0.154 A 
ATOM     20  N5  UNK     1      -3.130   2.512 -15.641  1.00  0.00    -0.162 NA
ATOM     21  N6  UNK     1      -3.332   3.055 -16.857  1.00  0.00    -0.162 NA
ATOM     22  C22 UNK     1      -2.194   2.887 -17.546  1.00  0.00     0.154 A 
ENDBRANCH  15  18
ENDBRANCH   3  12
BRANCH   2  23
ATOM     23  C2  UNK     1       2.698  -1.682 -18.990  1.00  0.00     0.250 C 
BRANCH  23  24
ATOM     24  N1  UNK     1       2.795  -2.530 -20.161  1.00  0.00    -0.263 N 
ATOM     25  N2  UNK     1       3.020  -1.985 -21.376  1.00  0.00     0.006 NA
ATOM     26  N3  UNK     1       3.017  -2.973 -22.262  1.00  0.00    -0.158 NA
ATOM     27  C3  UNK     1       2.768  -4.142 -21.595  1.00  0.00     0.102 A 
ATOM     28  C4  UNK     1       2.675  -5.460 -22.064  1.00  0.00     0.035 A 
ATOM     29  C8  UNK     1       2.594  -3.883 -20.242  1.00  0.00     0.079 A 
ATOM     30  C5  UNK     1       2.408  -6.480 -21.139  1.00  0.00     0.002 A 
ATOM     31  C6  UNK     1       2.223  -6.190 -19.786  1.00  0.00     0.002 A 
ATOM     32  C7  UNK     1       2.309  -4.879 -19.304  1.00  0.00     0.033 A 
ENDBRANCH  23  24
ENDBRANCH   2  23
TORSDOF 6
ENDMDL
