REMARK  6 active torsions:
REMARK  status: ('A' for Active; 'I' for Inactive)
REMARK       I    between atoms: N1_2  and  C2_3 
REMARK       I    between atoms: C2_3  and  N2_5 
REMARK    1  A    between atoms: N2_5  and  C3_6 
REMARK    2  A    between atoms: C6_9  and  N3_10 
REMARK    3  A    between atoms: N3_10  and  C7_11 
REMARK       I    between atoms: N3_10  and  C12_17 
REMARK    4  A    between atoms: C7_11  and  C8_12 
REMARK    5  A    between atoms: C12_17  and  C13_19 
REMARK    6  A    between atoms: C13_19  and  N4_20 
ROOT
ATOM      1  N3  UNK     1      59.674  20.896 -24.995  1.00  0.00    -0.312 N 
ATOM      2  C12 UNK     1      60.932  21.391 -25.360  1.00  0.00     0.244 C 
ATOM      3  O2  UNK     1      61.479  22.311 -24.730  1.00  0.00    -0.271 OA
ENDROOT
BRANCH   1   4
ATOM      4  C6  UNK     1      59.118  21.336 -23.753  1.00  0.00     0.037 A 
ATOM      5  C5  UNK     1      58.176  22.360 -23.746  1.00  0.00     0.032 A 
ATOM      6  C4  UNK     1      57.634  22.825 -22.535  1.00  0.00     0.032 A 
ATOM      7  C3  UNK     1      58.019  22.272 -21.309  1.00  0.00     0.036 A 
ATOM      8  C21 UNK     1      58.977  21.250 -21.316  1.00  0.00     0.032 A 
ATOM      9  C20 UNK     1      59.515  20.774 -22.530  1.00  0.00     0.032 A 
BRANCH   7  10
ATOM     10  N2  UNK     1      57.484  22.710 -20.070  1.00  0.00    -0.309 N 
ATOM     11  C2  UNK     1      56.298  23.388 -19.901  1.00  0.00     0.320 C 
ATOM     12  N1  UNK     1      56.076  23.731 -18.581  1.00  0.00    -0.347 N 
ATOM     13  O1  UNK     1      55.477  23.638 -20.781  1.00  0.00    -0.247 OA
ATOM     14  C1  UNK     1      54.845  24.416 -18.249  1.00  0.00     0.151 C 
ATOM     15  H4  UNK     1      56.898  23.990 -18.053  1.00  0.00     0.163 HD
ATOM     16  H5  UNK     1      57.861  22.283 -19.231  1.00  0.00     0.170 HD
ENDBRANCH   7  10
ENDBRANCH   1   4
BRANCH   1  17
ATOM     17  C7  UNK     1      59.010  19.736 -25.611  1.00  0.00     0.171 C 
BRANCH  17  18
ATOM     18  C8  UNK     1      58.521  20.004 -27.015  1.00  0.00    -0.033 A 
ATOM     19  C9  UNK     1      58.503  21.265 -27.712  1.00  0.00     0.016 A 
ATOM     20  C10 UNK     1      58.068  21.156 -29.014  1.00  0.00     0.050 A 
ATOM     21  S1  UNK     1      57.598  19.562 -29.399  1.00  0.00    -0.113 SA
ATOM     22  C11 UNK     1      58.029  19.005 -27.841  1.00  0.00     0.058 A 
ENDBRANCH  17  18
ENDBRANCH   1  17
BRANCH   2  23
ATOM     23  C13 UNK     1      61.663  20.833 -26.577  1.00  0.00     0.250 C 
BRANCH  23  24
ATOM     24  N4  UNK     1      62.342  19.593 -26.268  1.00  0.00    -0.263 N 
ATOM     25  N5  UNK     1      61.934  18.460 -26.878  1.00  0.00     0.006 NA
ATOM     26  N6  UNK     1      62.146  17.465 -26.026  1.00  0.00    -0.158 NA
ATOM     27  C14 UNK     1      62.799  17.974 -24.936  1.00  0.00     0.102 A 
ATOM     28  C15 UNK     1      63.150  17.383 -23.717  1.00  0.00     0.035 A 
ATOM     29  C19 UNK     1      63.077  19.320 -25.143  1.00  0.00     0.079 A 
ATOM     30  C16 UNK     1      63.834  18.163 -22.778  1.00  0.00     0.002 A 
ATOM     31  C17 UNK     1      64.191  19.483 -23.056  1.00  0.00     0.002 A 
ATOM     32  C18 UNK     1      63.812  20.103 -24.250  1.00  0.00     0.033 A 
ENDBRANCH  23  24
ENDBRANCH   2  23
TORSDOF 6
