MODEL 1
REMARK VINA RESULT:      -6.9      0.000      0.000
REMARK  6 active torsions:
REMARK  status: ('A' for Active; 'I' for Inactive)
REMARK       I    between atoms: N1_2  and  C2_3 
REMARK       I    between atoms: C2_3  and  N2_5 
REMARK    1  A    between atoms: N2_5  and  C3_6 
REMARK    2  A    between atoms: C6_9  and  N3_10 
REMARK    3  A    between atoms: N3_10  and  C7_11 
REMARK       I    between atoms: N3_10  and  C12_17 
REMARK    4  A    between atoms: C7_11  and  C8_12 
REMARK    5  A    between atoms: C12_17  and  C13_19 
REMARK    6  A    between atoms: C13_19  and  N4_20 
ROOT
ATOM      1  N3  UNK     1      18.056  13.795  -0.770  1.00  0.00    -0.312 N 
ATOM      2  C12 UNK     1      18.001  12.467  -1.209  1.00  0.00     0.244 C 
ATOM      3  O2  UNK     1      18.995  11.895  -1.685  1.00  0.00    -0.271 OA
ENDROOT
BRANCH   1   4
ATOM      4  C6  UNK     1      19.340  14.420  -0.693  1.00  0.00     0.037 A 
ATOM      5  C5  UNK     1      19.988  14.511   0.535  1.00  0.00     0.032 A 
ATOM      6  C4  UNK     1      21.240  15.142   0.638  1.00  0.00     0.032 A 
ATOM      7  C3  UNK     1      21.870  15.690  -0.485  1.00  0.00     0.036 A 
ATOM      8  C21 UNK     1      21.211  15.610  -1.718  1.00  0.00     0.032 A 
ATOM      9  C20 UNK     1      19.959  14.968  -1.827  1.00  0.00     0.032 A 
BRANCH   7  10
ATOM     10  N2  UNK     1      23.137  16.325  -0.418  1.00  0.00    -0.309 N 
ATOM     11  C2  UNK     1      24.357  15.702  -0.560  1.00  0.00     0.320 C 
ATOM     12  N1  UNK     1      25.413  16.575  -0.385  1.00  0.00    -0.347 N 
ATOM     13  O1  UNK     1      24.535  14.522  -0.856  1.00  0.00    -0.247 OA
ATOM     14  C1  UNK     1      26.758  16.065  -0.544  1.00  0.00     0.151 C 
ATOM     15  H4  UNK     1      25.277  17.290   0.317  1.00  0.00     0.163 HD
ATOM     16  H5  UNK     1      23.152  17.333  -0.527  1.00  0.00     0.170 HD
ENDBRANCH   7  10
ENDBRANCH   1   4
BRANCH   1  17
ATOM     17  C7  UNK     1      16.963  14.507  -0.088  1.00  0.00     0.171 C 
BRANCH  17  18
ATOM     18  C8  UNK     1      16.214  15.457  -0.993  1.00  0.00    -0.033 A 
ATOM     19  C9  UNK     1      16.743  16.219  -2.096  1.00  0.00     0.016 A 
ATOM     20  C10 UNK     1      15.777  16.931  -2.772  1.00  0.00     0.050 A 
ATOM     21  S1  UNK     1      14.240  16.766  -2.052  1.00  0.00    -0.113 SA
ATOM     22  C11 UNK     1      14.854  15.696  -0.868  1.00  0.00     0.058 A 
ENDBRANCH  17  18
ENDBRANCH   1  17
BRANCH   2  23
ATOM     23  C13 UNK     1      16.694  11.682  -1.147  1.00  0.00     0.250 C 
BRANCH  23  24
ATOM     24  N4  UNK     1      16.291  11.215  -2.456  1.00  0.00    -0.263 N 
ATOM     25  N5  UNK     1      16.812  10.061  -2.922  1.00  0.00     0.006 NA
ATOM     26  N6  UNK     1      16.890  10.178  -4.242  1.00  0.00    -0.158 NA
ATOM     27  C14 UNK     1      16.302  11.362  -4.596  1.00  0.00     0.102 A 
ATOM     28  C15 UNK     1      16.220  12.012  -5.833  1.00  0.00     0.035 A 
ATOM     29  C19 UNK     1      15.766  11.974  -3.470  1.00  0.00     0.079 A 
ATOM     30  C16 UNK     1      15.534  13.231  -5.893  1.00  0.00     0.002 A 
ATOM     31  C17 UNK     1      14.917  13.770  -4.765  1.00  0.00     0.002 A 
ATOM     32  C18 UNK     1      15.024  13.157  -3.513  1.00  0.00     0.033 A 
ENDBRANCH  23  24
ENDBRANCH   2  23
TORSDOF 6
ENDMDL
MODEL 2
REMARK VINA RESULT:      -6.6     15.273     18.251
REMARK  6 active torsions:
REMARK  status: ('A' for Active; 'I' for Inactive)
REMARK       I    between atoms: N1_2  and  C2_3 
REMARK       I    between atoms: C2_3  and  N2_5 
REMARK    1  A    between atoms: N2_5  and  C3_6 
REMARK    2  A    between atoms: C6_9  and  N3_10 
REMARK    3  A    between atoms: N3_10  and  C7_11 
REMARK       I    between atoms: N3_10  and  C12_17 
REMARK    4  A    between atoms: C7_11  and  C8_12 
REMARK    5  A    between atoms: C12_17  and  C13_19 
REMARK    6  A    between atoms: C13_19  and  N4_20 
ROOT
ATOM      1  N3  UNK     1      18.192   3.184  10.393  1.00  0.00    -0.312 N 
ATOM      2  C12 UNK     1      17.465   3.429  11.564  1.00  0.00     0.244 C 
ATOM      3  O2  UNK     1      16.327   2.962  11.736  1.00  0.00    -0.271 OA
ENDROOT
BRANCH   1   4
ATOM      4  C6  UNK     1      17.677   2.212   9.478  1.00  0.00     0.037 A 
ATOM      5  C5  UNK     1      16.698   2.583   8.561  1.00  0.00     0.032 A 
ATOM      6  C4  UNK     1      16.160   1.639   7.669  1.00  0.00     0.032 A 
ATOM      7  C3  UNK     1      16.593   0.309   7.673  1.00  0.00     0.036 A 
ATOM      8  C21 UNK     1      17.569  -0.066   8.606  1.00  0.00     0.032 A 
ATOM      9  C20 UNK     1      18.119   0.881   9.495  1.00  0.00     0.032 A 
BRANCH   7  10
ATOM     10  N2  UNK     1      16.079  -0.667   6.780  1.00  0.00    -0.309 N 
ATOM     11  C2  UNK     1      15.177  -1.655   7.101  1.00  0.00     0.320 C 
ATOM     12  N1  UNK     1      14.913  -2.489   6.031  1.00  0.00    -0.347 N 
ATOM     13  O1  UNK     1      14.608  -1.791   8.183  1.00  0.00    -0.247 OA
ATOM     14  C1  UNK     1      13.949  -3.554   6.214  1.00  0.00     0.151 C 
ATOM     15  H4  UNK     1      15.698  -2.684   5.426  1.00  0.00     0.163 HD
ATOM     16  H5  UNK     1      16.180  -0.479   5.789  1.00  0.00     0.170 HD
ENDBRANCH   7  10
ENDBRANCH   1   4
BRANCH   1  17
ATOM     17  C7  UNK     1      19.585   3.599  10.159  1.00  0.00     0.171 C 
BRANCH  17  18
ATOM     18  C8  UNK     1      19.704   4.989   9.581  1.00  0.00    -0.033 A 
ATOM     19  C9  UNK     1      18.787   5.650   8.688  1.00  0.00     0.016 A 
ATOM     20  C10 UNK     1      19.146   6.950   8.409  1.00  0.00     0.050 A 
ATOM     21  S1  UNK     1      20.626   7.375   9.144  1.00  0.00    -0.113 SA
ATOM     22  C11 UNK     1      20.759   5.838   9.881  1.00  0.00     0.058 A 
ENDBRANCH  17  18
ENDBRANCH   1  17
BRANCH   2  23
ATOM     23  C13 UNK     1      18.041   4.316  12.664  1.00  0.00     0.250 C 
BRANCH  23  24
ATOM     24  N4  UNK     1      17.234   5.500  12.870  1.00  0.00    -0.263 N 
ATOM     25  N5  UNK     1      17.574   6.637  12.228  1.00  0.00     0.006 NA
ATOM     26  N6  UNK     1      17.220   7.645  13.015  1.00  0.00    -0.158 NA
ATOM     27  C14 UNK     1      16.550   7.127  14.091  1.00  0.00     0.102 A 
ATOM     28  C15 UNK     1      16.072   7.736  15.256  1.00  0.00     0.035 A 
ATOM     29  C19 UNK     1      16.409   5.753  13.936  1.00  0.00     0.079 A 
ATOM     30  C16 UNK     1      15.405   6.939  16.192  1.00  0.00     0.002 A 
ATOM     31  C17 UNK     1      15.188   5.580  15.962  1.00  0.00     0.002 A 
ATOM     32  C18 UNK     1      15.694   4.945  14.824  1.00  0.00     0.033 A 
ENDBRANCH  23  24
ENDBRANCH   2  23
TORSDOF 6
ENDMDL
MODEL 3
REMARK VINA RESULT:      -6.3      4.185      7.487
REMARK  6 active torsions:
REMARK  status: ('A' for Active; 'I' for Inactive)
REMARK       I    between atoms: N1_2  and  C2_3 
REMARK       I    between atoms: C2_3  and  N2_5 
REMARK    1  A    between atoms: N2_5  and  C3_6 
REMARK    2  A    between atoms: C6_9  and  N3_10 
REMARK    3  A    between atoms: N3_10  and  C7_11 
REMARK       I    between atoms: N3_10  and  C12_17 
REMARK    4  A    between atoms: C7_11  and  C8_12 
REMARK    5  A    between atoms: C12_17  and  C13_19 
REMARK    6  A    between atoms: C13_19  and  N4_20 
ROOT
ATOM      1  N3  UNK     1      15.387  15.071  -1.848  1.00  0.00    -0.312 N 
ATOM      2  C12 UNK     1      16.395  15.041  -0.877  1.00  0.00     0.244 C 
ATOM      3  O2  UNK     1      16.835  16.082  -0.361  1.00  0.00    -0.271 OA
ENDROOT
BRANCH   1   4
ATOM      4  C6  UNK     1      14.728  16.317  -2.090  1.00  0.00     0.037 A 
ATOM      5  C5  UNK     1      15.455  17.393  -2.588  1.00  0.00     0.032 A 
ATOM      6  C4  UNK     1      14.834  18.635  -2.810  1.00  0.00     0.032 A 
ATOM      7  C3  UNK     1      13.473  18.822  -2.544  1.00  0.00     0.036 A 
ATOM      8  C21 UNK     1      12.745  17.741  -2.030  1.00  0.00     0.032 A 
ATOM      9  C20 UNK     1      13.363  16.492  -1.816  1.00  0.00     0.032 A 
BRANCH   7  10
ATOM     10  N2  UNK     1      12.813  20.058  -2.767  1.00  0.00    -0.309 N 
ATOM     11  C2  UNK     1      11.965  20.339  -3.814  1.00  0.00     0.320 C 
ATOM     12  N1  UNK     1      11.524  21.648  -3.793  1.00  0.00    -0.347 N 
ATOM     13  O1  UNK     1      11.577  19.540  -4.664  1.00  0.00    -0.247 OA
ATOM     14  C1  UNK     1      10.592  22.074  -4.815  1.00  0.00     0.151 C 
ATOM     15  H4  UNK     1      12.199  22.331  -3.478  1.00  0.00     0.163 HD
ATOM     16  H5  UNK     1      12.754  20.695  -1.980  1.00  0.00     0.170 HD
ENDBRANCH   7  10
ENDBRANCH   1   4
BRANCH   1  17
ATOM     17  C7  UNK     1      14.730  13.885  -2.421  1.00  0.00     0.171 C 
BRANCH  17  18
ATOM     18  C8  UNK     1      15.019  13.694  -3.892  1.00  0.00    -0.033 A 
ATOM     19  C9  UNK     1      15.845  14.519  -4.738  1.00  0.00     0.016 A 
ATOM     20  C10 UNK     1      15.969  14.025  -6.017  1.00  0.00     0.050 A 
ATOM     21  S1  UNK     1      15.038  12.615  -6.251  1.00  0.00    -0.113 SA
ATOM     22  C11 UNK     1      14.512  12.632  -4.624  1.00  0.00     0.058 A 
ENDBRANCH  17  18
ENDBRANCH   1  17
BRANCH   2  23
ATOM     23  C13 UNK     1      17.015  13.718  -0.441  1.00  0.00     0.250 C 
BRANCH  23  24
ATOM     24  N4  UNK     1      17.995  13.249  -1.397  1.00  0.00    -0.263 N 
ATOM     25  N5  UNK     1      18.867  14.136  -1.922  1.00  0.00     0.006 NA
ATOM     26  N6  UNK     1      19.144  13.724  -3.152  1.00  0.00    -0.158 NA
ATOM     27  C14 UNK     1      18.533  12.513  -3.339  1.00  0.00     0.102 A 
ATOM     28  C15 UNK     1      18.412  11.712  -4.481  1.00  0.00     0.035 A 
ATOM     29  C19 UNK     1      17.916  12.112  -2.160  1.00  0.00     0.079 A 
ATOM     30  C16 UNK     1      17.726  10.498  -4.365  1.00  0.00     0.002 A 
ATOM     31  C17 UNK     1      17.206  10.074  -3.142  1.00  0.00     0.002 A 
ATOM     32  C18 UNK     1      17.280  10.879  -2.002  1.00  0.00     0.033 A 
ENDBRANCH  23  24
ENDBRANCH   2  23
TORSDOF 6
ENDMDL
MODEL 4
REMARK VINA RESULT:      -6.2     25.939     28.794
REMARK  6 active torsions:
REMARK  status: ('A' for Active; 'I' for Inactive)
REMARK       I    between atoms: N1_2  and  C2_3 
REMARK       I    between atoms: C2_3  and  N2_5 
REMARK    1  A    between atoms: N2_5  and  C3_6 
REMARK    2  A    between atoms: C6_9  and  N3_10 
REMARK    3  A    between atoms: N3_10  and  C7_11 
REMARK       I    between atoms: N3_10  and  C12_17 
REMARK    4  A    between atoms: C7_11  and  C8_12 
REMARK    5  A    between atoms: C12_17  and  C13_19 
REMARK    6  A    between atoms: C13_19  and  N4_20 
ROOT
ATOM      1  N3  UNK     1       0.650   0.919 -19.387  1.00  0.00    -0.312 N 
ATOM      2  C12 UNK     1       0.118  -0.083 -20.208  1.00  0.00     0.244 C 
ATOM      3  O2  UNK     1      -1.053  -0.477 -20.082  1.00  0.00    -0.271 OA
ENDROOT
BRANCH   1   4
ATOM      4  C6  UNK     1      -0.250   1.626 -18.529  1.00  0.00     0.037 A 
ATOM      5  C5  UNK     1      -1.058   2.629 -19.056  1.00  0.00     0.032 A 
ATOM      6  C4  UNK     1      -1.932   3.353 -18.227  1.00  0.00     0.032 A 
ATOM      7  C3  UNK     1      -2.020   3.085 -16.857  1.00  0.00     0.036 A 
ATOM      8  C21 UNK     1      -1.197   2.084 -16.324  1.00  0.00     0.032 A 
ATOM      9  C20 UNK     1      -0.326   1.349 -17.155  1.00  0.00     0.032 A 
BRANCH   7  10
ATOM     10  N2  UNK     1      -2.899   3.789 -15.994  1.00  0.00    -0.309 N 
ATOM     11  C2  UNK     1      -4.200   3.440 -15.713  1.00  0.00     0.320 C 
ATOM     12  N1  UNK     1      -4.819   4.356 -14.883  1.00  0.00    -0.347 N 
ATOM     13  O1  UNK     1      -4.772   2.420 -16.090  1.00  0.00    -0.247 OA
ATOM     14  C1  UNK     1      -6.182   4.095 -14.472  1.00  0.00     0.151 C 
ATOM     15  H4  UNK     1      -4.566   5.322 -15.034  1.00  0.00     0.163 HD
ATOM     16  H5  UNK     1      -2.477   4.444 -15.344  1.00  0.00     0.170 HD
ENDBRANCH   7  10
ENDBRANCH   1   4
BRANCH   1  17
ATOM     17  C7  UNK     1       1.982   1.524 -19.544  1.00  0.00     0.171 C 
BRANCH  17  18
ATOM     18  C8  UNK     1       2.756   1.608 -18.250  1.00  0.00    -0.033 A 
ATOM     19  C9  UNK     1       3.189   0.517 -17.414  1.00  0.00     0.016 A 
ATOM     20  C10 UNK     1       3.947   0.927 -16.340  1.00  0.00     0.050 A 
ATOM     21  S1  UNK     1       4.086   2.625 -16.268  1.00  0.00    -0.113 SA
ATOM     22  C11 UNK     1       3.179   2.811 -17.705  1.00  0.00     0.058 A 
ENDBRANCH  17  18
ENDBRANCH   1  17
BRANCH   2  23
ATOM     23  C13 UNK     1       0.981  -0.753 -21.272  1.00  0.00     0.250 C 
BRANCH  23  24
ATOM     24  N4  UNK     1       1.295  -2.121 -20.919  1.00  0.00    -0.263 N 
ATOM     25  N5  UNK     1       0.307  -3.042 -20.947  1.00  0.00     0.006 NA
ATOM     26  N6  UNK     1       0.586  -3.935 -20.006  1.00  0.00    -0.158 NA
ATOM     27  C14 UNK     1       1.812  -3.627 -19.481  1.00  0.00     0.102 A 
ATOM     28  C15 UNK     1       2.510  -4.173 -18.398  1.00  0.00     0.035 A 
ATOM     29  C19 UNK     1       2.359  -2.550 -20.168  1.00  0.00     0.079 A 
ATOM     30  C16 UNK     1       3.772  -3.650 -18.095  1.00  0.00     0.002 A 
ATOM     31  C17 UNK     1       4.340  -2.637 -18.869  1.00  0.00     0.002 A 
ATOM     32  C18 UNK     1       3.641  -2.051 -19.927  1.00  0.00     0.033 A 
ENDBRANCH  23  24
ENDBRANCH   2  23
TORSDOF 6
ENDMDL
MODEL 5
REMARK VINA RESULT:      -6.1     24.857     28.561
REMARK  6 active torsions:
REMARK  status: ('A' for Active; 'I' for Inactive)
REMARK       I    between atoms: N1_2  and  C2_3 
REMARK       I    between atoms: C2_3  and  N2_5 
REMARK    1  A    between atoms: N2_5  and  C3_6 
REMARK    2  A    between atoms: C6_9  and  N3_10 
REMARK    3  A    between atoms: N3_10  and  C7_11 
REMARK       I    between atoms: N3_10  and  C12_17 
REMARK    4  A    between atoms: C7_11  and  C8_12 
REMARK    5  A    between atoms: C12_17  and  C13_19 
REMARK    6  A    between atoms: C13_19  and  N4_20 
ROOT
ATOM      1  N3  UNK     1       1.544   0.832 -18.861  1.00  0.00    -0.312 N 
ATOM      2  C12 UNK     1       1.077  -0.208 -19.672  1.00  0.00     0.244 C 
ATOM      3  O2  UNK     1      -0.110  -0.573 -19.647  1.00  0.00    -0.271 OA
ENDROOT
BRANCH   1   4
ATOM      4  C6  UNK     1       0.578   1.606 -18.145  1.00  0.00     0.037 A 
ATOM      5  C5  UNK     1      -0.006   2.712 -18.756  1.00  0.00     0.032 A 
ATOM      6  C4  UNK     1      -0.940   3.502 -18.062  1.00  0.00     0.032 A 
ATOM      7  C3  UNK     1      -1.312   3.198 -16.748  1.00  0.00     0.036 A 
ATOM      8  C21 UNK     1      -0.714   2.093 -16.130  1.00  0.00     0.032 A 
ATOM      9  C20 UNK     1       0.216   1.292 -16.826  1.00  0.00     0.032 A 
BRANCH   7  10
ATOM     10  N2  UNK     1      -2.259   3.967 -16.024  1.00  0.00    -0.309 N 
ATOM     11  C2  UNK     1      -3.561   3.602 -15.763  1.00  0.00     0.320 C 
ATOM     12  N1  UNK     1      -4.254   4.588 -15.087  1.00  0.00    -0.347 N 
ATOM     13  O1  UNK     1      -4.076   2.520 -16.036  1.00  0.00    -0.247 OA
ATOM     14  C1  UNK     1      -5.627   4.324 -14.711  1.00  0.00     0.151 C 
ATOM     15  H4  UNK     1      -4.027   5.538 -15.346  1.00  0.00     0.163 HD
ATOM     16  H5  UNK     1      -1.896   4.715 -15.444  1.00  0.00     0.170 HD
ENDBRANCH   7  10
ENDBRANCH   1   4
BRANCH   1  17
ATOM     17  C7  UNK     1       2.900   1.402 -18.913  1.00  0.00     0.171 C 
BRANCH  17  18
ATOM     18  C8  UNK     1       3.617   1.361 -17.584  1.00  0.00    -0.033 A 
ATOM     19  C9  UNK     1       3.805   2.446 -16.654  1.00  0.00     0.016 A 
ATOM     20  C10 UNK     1       4.434   2.059 -15.492  1.00  0.00     0.050 A 
ATOM     21  S1  UNK     1       4.883   0.413 -15.527  1.00  0.00    -0.113 SA
ATOM     22  C11 UNK     1       4.185   0.204 -17.074  1.00  0.00     0.058 A 
ENDBRANCH  17  18
ENDBRANCH   1  17
BRANCH   2  23
ATOM     23  C13 UNK     1       2.029  -0.958 -20.599  1.00  0.00     0.250 C 
BRANCH  23  24
ATOM     24  N4  UNK     1       2.461  -2.211 -20.017  1.00  0.00    -0.263 N 
ATOM     25  N5  UNK     1       3.747  -2.334 -19.623  1.00  0.00     0.006 NA
ATOM     26  N6  UNK     1       4.082  -3.607 -19.792  1.00  0.00    -0.158 NA
ATOM     27  C14 UNK     1       2.961  -4.292 -20.176  1.00  0.00     0.102 A 
ATOM     28  C15 UNK     1       2.792  -5.618 -20.589  1.00  0.00     0.035 A 
ATOM     29  C19 UNK     1       1.866  -3.436 -20.174  1.00  0.00     0.079 A 
ATOM     30  C16 UNK     1       1.501  -6.047 -20.918  1.00  0.00     0.002 A 
ATOM     31  C17 UNK     1       0.404  -5.193 -20.807  1.00  0.00     0.002 A 
ATOM     32  C18 UNK     1       0.559  -3.853 -20.438  1.00  0.00     0.033 A 
ENDBRANCH  23  24
ENDBRANCH   2  23
TORSDOF 6
ENDMDL
MODEL 6
REMARK VINA RESULT:      -6.0     15.384     18.407
REMARK  6 active torsions:
REMARK  status: ('A' for Active; 'I' for Inactive)
REMARK       I    between atoms: N1_2  and  C2_3 
REMARK       I    between atoms: C2_3  and  N2_5 
REMARK    1  A    between atoms: N2_5  and  C3_6 
REMARK    2  A    between atoms: C6_9  and  N3_10 
REMARK    3  A    between atoms: N3_10  and  C7_11 
REMARK       I    between atoms: N3_10  and  C12_17 
REMARK    4  A    between atoms: C7_11  and  C8_12 
REMARK    5  A    between atoms: C12_17  and  C13_19 
REMARK    6  A    between atoms: C13_19  and  N4_20 
ROOT
ATOM      1  N3  UNK     1      16.015   2.556  10.540  1.00  0.00    -0.312 N 
ATOM      2  C12 UNK     1      17.320   2.948  10.861  1.00  0.00     0.244 C 
ATOM      3  O2  UNK     1      18.306   2.269  10.529  1.00  0.00    -0.271 OA
ENDROOT
BRANCH   1   4
ATOM      4  C6  UNK     1      15.850   1.456   9.640  1.00  0.00     0.037 A 
ATOM      5  C5  UNK     1      15.806   0.159  10.141  1.00  0.00     0.032 A 
ATOM      6  C4  UNK     1      15.669  -0.939   9.273  1.00  0.00     0.032 A 
ATOM      7  C3  UNK     1      15.569  -0.760   7.889  1.00  0.00     0.036 A 
ATOM      8  C21 UNK     1      15.626   0.545   7.385  1.00  0.00     0.032 A 
ATOM      9  C20 UNK     1      15.753   1.649   8.254  1.00  0.00     0.032 A 
BRANCH   7  10
ATOM     10  N2  UNK     1      15.419  -1.845   6.987  1.00  0.00    -0.309 N 
ATOM     11  C2  UNK     1      14.256  -2.544   6.757  1.00  0.00     0.320 C 
ATOM     12  N1  UNK     1      14.440  -3.584   5.866  1.00  0.00    -0.347 N 
ATOM     13  O1  UNK     1      13.150  -2.282   7.225  1.00  0.00    -0.247 OA
ATOM     14  C1  UNK     1      13.290  -4.384   5.500  1.00  0.00     0.151 C 
ATOM     15  H4  UNK     1      15.326  -4.065   5.933  1.00  0.00     0.163 HD
ATOM     16  H5  UNK     1      16.137  -1.955   6.279  1.00  0.00     0.170 HD
ENDBRANCH   7  10
ENDBRANCH   1   4
BRANCH   1  17
ATOM     17  C7  UNK     1      14.805   3.356  10.790  1.00  0.00     0.171 C 
BRANCH  17  18
ATOM     18  C8  UNK     1      14.336   3.296  12.225  1.00  0.00    -0.033 A 
ATOM     19  C9  UNK     1      13.900   4.392  13.052  1.00  0.00     0.016 A 
ATOM     20  C10 UNK     1      13.458   3.989  14.293  1.00  0.00     0.050 A 
ATOM     21  S1  UNK     1      13.634   2.308  14.519  1.00  0.00    -0.113 SA
ATOM     22  C11 UNK     1      14.249   2.109  12.936  1.00  0.00     0.058 A 
ENDBRANCH  17  18
ENDBRANCH   1  17
BRANCH   2  23
ATOM     23  C13 UNK     1      17.573   4.217  11.669  1.00  0.00     0.250 C 
BRANCH  23  24
ATOM     24  N4  UNK     1      18.868   4.789  11.369  1.00  0.00    -0.263 N 
ATOM     25  N5  UNK     1      19.727   5.021  12.384  1.00  0.00     0.006 NA
ATOM     26  N6  UNK     1      20.446   6.084  12.047  1.00  0.00    -0.158 NA
ATOM     27  C14 UNK     1      20.111   6.432  10.766  1.00  0.00     0.102 A 
ATOM     28  C15 UNK     1      20.485   7.531   9.985  1.00  0.00     0.035 A 
ATOM     29  C19 UNK     1      19.206   5.510  10.252  1.00  0.00     0.079 A 
ATOM     30  C16 UNK     1      19.981   7.618   8.683  1.00  0.00     0.002 A 
ATOM     31  C17 UNK     1      19.156   6.622   8.158  1.00  0.00     0.002 A 
ATOM     32  C18 UNK     1      18.738   5.539   8.937  1.00  0.00     0.033 A 
ENDBRANCH  23  24
ENDBRANCH   2  23
TORSDOF 6
ENDMDL
MODEL 7
REMARK VINA RESULT:      -6.0      4.711      8.854
REMARK  6 active torsions:
REMARK  status: ('A' for Active; 'I' for Inactive)
REMARK       I    between atoms: N1_2  and  C2_3 
REMARK       I    between atoms: C2_3  and  N2_5 
REMARK    1  A    between atoms: N2_5  and  C3_6 
REMARK    2  A    between atoms: C6_9  and  N3_10 
REMARK    3  A    between atoms: N3_10  and  C7_11 
REMARK       I    between atoms: N3_10  and  C12_17 
REMARK    4  A    between atoms: C7_11  and  C8_12 
REMARK    5  A    between atoms: C12_17  and  C13_19 
REMARK    6  A    between atoms: C13_19  and  N4_20 
ROOT
ATOM      1  N3  UNK     1      18.336  11.797  -6.280  1.00  0.00    -0.312 N 
ATOM      2  C12 UNK     1      19.189  12.103  -5.213  1.00  0.00     0.244 C 
ATOM      3  O2  UNK     1      20.250  11.486  -5.027  1.00  0.00    -0.271 OA
ENDROOT
BRANCH   1   4
ATOM      4  C6  UNK     1      18.813  10.889  -7.277  1.00  0.00     0.037 A 
ATOM      5  C5  UNK     1      19.310  11.386  -8.478  1.00  0.00     0.032 A 
ATOM      6  C4  UNK     1      19.762  10.511  -9.481  1.00  0.00     0.032 A 
ATOM      7  C3  UNK     1      19.731   9.124  -9.301  1.00  0.00     0.036 A 
ATOM      8  C21 UNK     1      19.219   8.624  -8.097  1.00  0.00     0.032 A 
ATOM      9  C20 UNK     1      18.774   9.500  -7.084  1.00  0.00     0.032 A 
BRANCH   7  10
ATOM     10  N2  UNK     1      20.189   8.213 -10.288  1.00  0.00    -0.309 N 
ATOM     11  C2  UNK     1      19.530   7.890 -11.452  1.00  0.00     0.320 C 
ATOM     12  N1  UNK     1      20.200   6.928 -12.182  1.00  0.00    -0.347 N 
ATOM     13  O1  UNK     1      18.491   8.404 -11.860  1.00  0.00    -0.247 OA
ATOM     14  C1  UNK     1      19.640   6.518 -13.452  1.00  0.00     0.151 C 
ATOM     15  H4  UNK     1      20.668   6.215 -11.640  1.00  0.00     0.163 HD
ATOM     16  H5  UNK     1      21.175   7.974 -10.269  1.00  0.00     0.170 HD
ENDBRANCH   7  10
ENDBRANCH   1   4
BRANCH   1  17
ATOM     17  C7  UNK     1      17.125  12.552  -6.639  1.00  0.00     0.171 C 
BRANCH  17  18
ATOM     18  C8  UNK     1      15.846  11.852  -6.244  1.00  0.00    -0.033 A 
ATOM     19  C9  UNK     1      15.514  11.292  -4.959  1.00  0.00     0.016 A 
ATOM     20  C10 UNK     1      14.231  10.793  -4.903  1.00  0.00     0.050 A 
ATOM     21  S1  UNK     1      13.433  10.912  -6.406  1.00  0.00    -0.113 SA
ATOM     22  C11 UNK     1      14.783  11.683  -7.118  1.00  0.00     0.058 A 
ENDBRANCH  17  18
ENDBRANCH   1  17
BRANCH   2  23
ATOM     23  C13 UNK     1      18.820  13.194  -4.212  1.00  0.00     0.250 C 
BRANCH  23  24
ATOM     24  N4  UNK     1      19.188  12.825  -2.862  1.00  0.00    -0.263 N 
ATOM     25  N5  UNK     1      18.400  11.962  -2.187  1.00  0.00     0.006 NA
ATOM     26  N6  UNK     1      18.479  12.289  -0.904  1.00  0.00    -0.158 NA
ATOM     27  C14 UNK     1      19.414  13.281  -0.777  1.00  0.00     0.102 A 
ATOM     28  C15 UNK     1      19.792  14.051   0.328  1.00  0.00     0.035 A 
ATOM     29  C19 UNK     1      20.000  13.532  -2.012  1.00  0.00     0.079 A 
ATOM     30  C16 UNK     1      20.803  15.002   0.155  1.00  0.00     0.002 A 
ATOM     31  C17 UNK     1      21.446  15.160  -1.074  1.00  0.00     0.002 A 
ATOM     32  C18 UNK     1      21.053  14.431  -2.199  1.00  0.00     0.033 A 
ENDBRANCH  23  24
ENDBRANCH   2  23
TORSDOF 6
ENDMDL
MODEL 8
REMARK VINA RESULT:      -5.9      1.957      2.528
REMARK  6 active torsions:
REMARK  status: ('A' for Active; 'I' for Inactive)
REMARK       I    between atoms: N1_2  and  C2_3 
REMARK       I    between atoms: C2_3  and  N2_5 
REMARK    1  A    between atoms: N2_5  and  C3_6 
REMARK    2  A    between atoms: C6_9  and  N3_10 
REMARK    3  A    between atoms: N3_10  and  C7_11 
REMARK       I    between atoms: N3_10  and  C12_17 
REMARK    4  A    between atoms: C7_11  and  C8_12 
REMARK    5  A    between atoms: C12_17  and  C13_19 
REMARK    6  A    between atoms: C13_19  and  N4_20 
ROOT
ATOM      1  N3  UNK     1      18.642  14.726  -0.774  1.00  0.00    -0.312 N 
ATOM      2  C12 UNK     1      18.291  13.487  -1.323  1.00  0.00     0.244 C 
ATOM      3  O2  UNK     1      19.136  12.745  -1.852  1.00  0.00    -0.271 OA
ENDROOT
BRANCH   1   4
ATOM      4  C6  UNK     1      20.033  15.033  -0.652  1.00  0.00     0.037 A 
ATOM      5  C5  UNK     1      20.724  15.536  -1.750  1.00  0.00     0.032 A 
ATOM      6  C4  UNK     1      22.098  15.823  -1.660  1.00  0.00     0.032 A 
ATOM      7  C3  UNK     1      22.805  15.616  -0.471  1.00  0.00     0.036 A 
ATOM      8  C21 UNK     1      22.112  15.097   0.629  1.00  0.00     0.032 A 
ATOM      9  C20 UNK     1      20.731  14.819   0.546  1.00  0.00     0.032 A 
BRANCH   7  10
ATOM     10  N2  UNK     1      24.189  15.904  -0.344  1.00  0.00    -0.309 N 
ATOM     11  C2  UNK     1      25.220  15.106  -0.783  1.00  0.00     0.320 C 
ATOM     12  N1  UNK     1      26.458  15.628  -0.461  1.00  0.00    -0.347 N 
ATOM     13  O1  UNK     1      25.105  14.069  -1.433  1.00  0.00    -0.247 OA
ATOM     14  C1  UNK     1      27.638  14.912  -0.896  1.00  0.00     0.151 C 
ATOM     15  H4  UNK     1      26.515  16.099   0.431  1.00  0.00     0.163 HD
ATOM     16  H5  UNK     1      24.440  16.867  -0.148  1.00  0.00     0.170 HD
ENDBRANCH   7  10
ENDBRANCH   1   4
BRANCH   1  17
ATOM     17  C7  UNK     1      17.731  15.609  -0.028  1.00  0.00     0.171 C 
BRANCH  17  18
ATOM     18  C8  UNK     1      17.891  17.068  -0.381  1.00  0.00    -0.033 A 
ATOM     19  C9  UNK     1      17.559  17.711  -1.627  1.00  0.00     0.016 A 
ATOM     20  C10 UNK     1      17.752  19.075  -1.600  1.00  0.00     0.050 A 
ATOM     21  S1  UNK     1      18.409  19.597  -0.114  1.00  0.00    -0.113 SA
ATOM     22  C11 UNK     1      18.383  18.007   0.514  1.00  0.00     0.058 A 
ENDBRANCH  17  18
ENDBRANCH   1  17
BRANCH   2  23
ATOM     23  C13 UNK     1      16.840  13.018  -1.320  1.00  0.00     0.250 C 
BRANCH  23  24
ATOM     24  N4  UNK     1      16.129  13.477  -2.494  1.00  0.00    -0.263 N 
ATOM     25  N5  UNK     1      15.214  14.460  -2.356  1.00  0.00     0.006 NA
ATOM     26  N6  UNK     1      14.277  14.246  -3.271  1.00  0.00    -0.158 NA
ATOM     27  C14 UNK     1      14.681  13.197  -4.052  1.00  0.00     0.102 A 
ATOM     28  C15 UNK     1      14.019  12.503  -5.072  1.00  0.00     0.035 A 
ATOM     29  C19 UNK     1      15.952  12.788  -3.666  1.00  0.00     0.079 A 
ATOM     30  C16 UNK     1      14.700  11.461  -5.710  1.00  0.00     0.002 A 
ATOM     31  C17 UNK     1      16.015  11.140  -5.370  1.00  0.00     0.002 A 
ATOM     32  C18 UNK     1      16.677  11.793  -4.327  1.00  0.00     0.033 A 
ENDBRANCH  23  24
ENDBRANCH   2  23
TORSDOF 6
ENDMDL
MODEL 9
REMARK VINA RESULT:      -5.9     18.863     23.123
REMARK  6 active torsions:
REMARK  status: ('A' for Active; 'I' for Inactive)
REMARK       I    between atoms: N1_2  and  C2_3 
REMARK       I    between atoms: C2_3  and  N2_5 
REMARK    1  A    between atoms: N2_5  and  C3_6 
REMARK    2  A    between atoms: C6_9  and  N3_10 
REMARK    3  A    between atoms: N3_10  and  C7_11 
REMARK       I    between atoms: N3_10  and  C12_17 
REMARK    4  A    between atoms: C7_11  and  C8_12 
REMARK    5  A    between atoms: C12_17  and  C13_19 
REMARK    6  A    between atoms: C13_19  and  N4_20 
ROOT
ATOM      1  N3  UNK     1       4.829   2.154 -16.335  1.00  0.00    -0.312 N 
ATOM      2  C12 UNK     1       5.667   1.299 -17.061  1.00  0.00     0.244 C 
ATOM      3  O2  UNK     1       6.714   1.707 -17.590  1.00  0.00    -0.271 OA
ENDROOT
BRANCH   1   4
ATOM      4  C6  UNK     1       5.309   3.468 -16.041  1.00  0.00     0.037 A 
ATOM      5  C5  UNK     1       4.852   4.549 -16.789  1.00  0.00     0.032 A 
ATOM      6  C4  UNK     1       5.328   5.847 -16.534  1.00  0.00     0.032 A 
ATOM      7  C3  UNK     1       6.265   6.090 -15.524  1.00  0.00     0.036 A 
ATOM      8  C21 UNK     1       6.734   5.000 -14.780  1.00  0.00     0.032 A 
ATOM      9  C20 UNK     1       6.251   3.698 -15.027  1.00  0.00     0.032 A 
BRANCH   7  10
ATOM     10  N2  UNK     1       6.758   7.389 -15.233  1.00  0.00    -0.309 N 
ATOM     11  C2  UNK     1       6.000   8.465 -14.832  1.00  0.00     0.320 C 
ATOM     12  N1  UNK     1       6.758   9.611 -14.683  1.00  0.00    -0.347 N 
ATOM     13  O1  UNK     1       4.798   8.447 -14.575  1.00  0.00    -0.247 OA
ATOM     14  C1  UNK     1       6.097  10.815 -14.226  1.00  0.00     0.151 C 
ATOM     15  H4  UNK     1       7.508   9.729 -15.350  1.00  0.00     0.163 HD
ATOM     16  H5  UNK     1       7.754   7.474 -15.062  1.00  0.00     0.170 HD
ENDBRANCH   7  10
ENDBRANCH   1   4
BRANCH   1  17
ATOM     17  C7  UNK     1       3.638   1.731 -15.581  1.00  0.00     0.171 C 
BRANCH  17  18
ATOM     18  C8  UNK     1       2.377   1.721 -16.413  1.00  0.00    -0.033 A 
ATOM     19  C9  UNK     1       1.064   1.286 -16.010  1.00  0.00     0.016 A 
ATOM     20  C10 UNK     1       0.109   1.483 -16.982  1.00  0.00     0.050 A 
ATOM     21  S1  UNK     1       0.779   2.113 -18.419  1.00  0.00    -0.113 SA
ATOM     22  C11 UNK     1       2.339   2.177 -17.722  1.00  0.00     0.058 A 
ENDBRANCH  17  18
ENDBRANCH   1  17
BRANCH   2  23
ATOM     23  C13 UNK     1       5.299  -0.168 -17.257  1.00  0.00     0.250 C 
BRANCH  23  24
ATOM     24  N4  UNK     1       6.142  -1.039 -16.466  1.00  0.00    -0.263 N 
ATOM     25  N5  UNK     1       6.151  -0.890 -15.124  1.00  0.00     0.006 NA
ATOM     26  N6  UNK     1       7.367  -1.219 -14.708  1.00  0.00    -0.158 NA
ATOM     27  C14 UNK     1       8.070  -1.688 -15.784  1.00  0.00     0.102 A 
ATOM     28  C15 UNK     1       9.415  -2.053 -15.915  1.00  0.00     0.035 A 
ATOM     29  C19 UNK     1       7.244  -1.729 -16.901  1.00  0.00     0.079 A 
ATOM     30  C16 UNK     1       9.856  -2.513 -17.160  1.00  0.00     0.002 A 
ATOM     31  C17 UNK     1       8.978  -2.641 -18.237  1.00  0.00     0.002 A 
ATOM     32  C18 UNK     1       7.642  -2.242 -18.138  1.00  0.00     0.033 A 
ENDBRANCH  23  24
ENDBRANCH   2  23
TORSDOF 6
ENDMDL
MODEL 10
REMARK VINA RESULT:      -5.8      4.733      6.712
REMARK  6 active torsions:
REMARK  status: ('A' for Active; 'I' for Inactive)
REMARK       I    between atoms: N1_2  and  C2_3 
REMARK       I    between atoms: C2_3  and  N2_5 
REMARK    1  A    between atoms: N2_5  and  C3_6 
REMARK    2  A    between atoms: C6_9  and  N3_10 
REMARK    3  A    between atoms: N3_10  and  C7_11 
REMARK       I    between atoms: N3_10  and  C12_17 
REMARK    4  A    between atoms: C7_11  and  C8_12 
REMARK    5  A    between atoms: C12_17  and  C13_19 
REMARK    6  A    between atoms: C13_19  and  N4_20 
ROOT
ATOM      1  N3  UNK     1      18.909  11.036  -4.758  1.00  0.00    -0.312 N 
ATOM      2  C12 UNK     1      20.116  10.601  -5.320  1.00  0.00     0.244 C 
ATOM      3  O2  UNK     1      21.182  11.210  -5.127  1.00  0.00    -0.271 OA
ENDROOT
BRANCH   1   4
ATOM      4  C6  UNK     1      18.964  12.086  -3.788  1.00  0.00     0.037 A 
ATOM      5  C5  UNK     1      19.044  13.409  -4.211  1.00  0.00     0.032 A 
ATOM      6  C4  UNK     1      19.123  14.455  -3.275  1.00  0.00     0.032 A 
ATOM      7  C3  UNK     1      19.117  14.199  -1.900  1.00  0.00     0.036 A 
ATOM      8  C21 UNK     1      19.049  12.866  -1.475  1.00  0.00     0.032 A 
ATOM      9  C20 UNK     1      18.960  11.814  -2.411  1.00  0.00     0.032 A 
BRANCH   7  10
ATOM     10  N2  UNK     1      19.184  15.231  -0.929  1.00  0.00    -0.309 N 
ATOM     11  C2  UNK     1      18.195  15.553  -0.027  1.00  0.00     0.320 C 
ATOM     12  N1  UNK     1      18.531  16.645   0.750  1.00  0.00    -0.347 N 
ATOM     13  O1  UNK     1      17.142  14.941   0.138  1.00  0.00    -0.247 OA
ATOM     14  C1  UNK     1      17.598  17.073   1.770  1.00  0.00     0.151 C 
ATOM     15  H4  UNK     1      19.057  17.369   0.281  1.00  0.00     0.163 HD
ATOM     16  H5  UNK     1      20.105  15.593  -0.706  1.00  0.00     0.170 HD
ENDBRANCH   7  10
ENDBRANCH   1   4
BRANCH   1  17
ATOM     17  C7  UNK     1      17.630  10.313  -4.839  1.00  0.00     0.171 C 
BRANCH  17  18
ATOM     18  C8  UNK     1      16.529  11.117  -5.490  1.00  0.00    -0.033 A 
ATOM     19  C9  UNK     1      16.464  11.567  -6.858  1.00  0.00     0.016 A 
ATOM     20  C10 UNK     1      15.284  12.211  -7.158  1.00  0.00     0.050 A 
ATOM     21  S1  UNK     1      14.272  12.360  -5.792  1.00  0.00    -0.113 SA
ATOM     22  C11 UNK     1      15.387  11.513  -4.811  1.00  0.00     0.058 A 
ENDBRANCH  17  18
ENDBRANCH   1  17
BRANCH   2  23
ATOM     23  C13 UNK     1      20.155   9.373  -6.223  1.00  0.00     0.250 C 
BRANCH  23  24
ATOM     24  N4  UNK     1      20.990   8.330  -5.668  1.00  0.00    -0.263 N 
ATOM     25  N5  UNK     1      20.885   8.044  -4.353  1.00  0.00     0.006 NA
ATOM     26  N6  UNK     1      22.084   7.648  -3.946  1.00  0.00    -0.158 NA
ATOM     27  C14 UNK     1      22.899   7.574  -5.043  1.00  0.00     0.102 A 
ATOM     28  C15 UNK     1      24.271   7.323  -5.153  1.00  0.00     0.035 A 
ATOM     29  C19 UNK     1      22.167   7.858  -6.190  1.00  0.00     0.079 A 
ATOM     30  C16 UNK     1      24.839   7.301  -6.432  1.00  0.00     0.002 A 
ATOM     31  C17 UNK     1      24.058   7.487  -7.573  1.00  0.00     0.002 A 
ATOM     32  C18 UNK     1      22.694   7.781  -7.481  1.00  0.00     0.033 A 
ENDBRANCH  23  24
ENDBRANCH   2  23
TORSDOF 6
ENDMDL
