MODEL 1
REMARK VINA RESULT:      -6.2      0.000      0.000
REMARK  4 active torsions:
REMARK  status: ('A' for Active; 'I' for Inactive)
REMARK    1  A    between atoms: S1_2  and  C2_3 
REMARK    2  A    between atoms: C3_6  and  S2_7 
REMARK    3  A    between atoms: S2_7  and  C4_8 
REMARK    4  A    between atoms: C4_8  and  C5_10 
ROOT
ATOM      1  C5  UNK     1      18.956   7.193  12.838  1.00  0.00     0.091 A 
ATOM      2  C6  UNK     1      18.641   5.955  12.298  1.00  0.00     0.048 A 
ATOM      3  C7  UNK     1      18.902   5.981  10.903  1.00  0.00    -0.007 A 
ATOM      4  C8  UNK     1      18.781   5.036   9.867  1.00  0.00     0.014 A 
ATOM      5  C9  UNK     1      19.154   5.397   8.567  1.00  0.00     0.001 A 
ATOM      6  C10 UNK     1      19.635   6.676   8.297  1.00  0.00     0.002 A 
ATOM      7  C11 UNK     1      19.757   7.632   9.310  1.00  0.00     0.030 A 
ATOM      8  C12 UNK     1      19.381   7.254  10.606  1.00  0.00     0.043 A 
ATOM      9  N3  UNK     1      19.393   7.968  11.783  1.00  0.00    -0.352 N 
ATOM     10  H9  UNK     1      19.699   8.930  11.856  1.00  0.00     0.166 HD
ENDROOT
BRANCH   1  11
ATOM     11  C4  UNK     1      18.854   7.581  14.231  1.00  0.00     0.242 C 
ATOM     12  O1  UNK     1      19.275   8.639  14.686  1.00  0.00    -0.278 OA
BRANCH  11  13
ATOM     13  S2  UNK     1      18.141   6.384  15.296  1.00  0.00    -0.017 SA
BRANCH  13  14
ATOM     14  C3  UNK     1      16.596   7.161  15.520  1.00  0.00     0.167 A 
ATOM     15  N2  UNK     1      16.166   8.034  14.634  1.00  0.00    -0.134 NA
ATOM     16  N1  UNK     1      14.899   8.496  14.935  1.00  0.00    -0.134 NA
ATOM     17  C2  UNK     1      14.422   7.952  16.034  1.00  0.00     0.159 A 
ATOM     18  S3  UNK     1      15.488   6.838  16.788  1.00  0.00    -0.033 SA
BRANCH  17  19
ATOM     19  S1  UNK     1      12.839   8.335  16.673  1.00  0.00    -0.106 SA
ATOM     20  C1  UNK     1      11.817   7.129  15.795  1.00  0.00     0.098 C 
ENDBRANCH  17  19
ENDBRANCH  13  14
ENDBRANCH  11  13
ENDBRANCH   1  11
TORSDOF 4
ENDMDL
MODEL 2
REMARK VINA RESULT:      -5.9     15.512     17.382
REMARK  4 active torsions:
REMARK  status: ('A' for Active; 'I' for Inactive)
REMARK    1  A    between atoms: S1_2  and  C2_3 
REMARK    2  A    between atoms: C3_6  and  S2_7 
REMARK    3  A    between atoms: S2_7  and  C4_8 
REMARK    4  A    between atoms: C4_8  and  C5_10 
ROOT
ATOM      1  C5  UNK     1      15.877  11.127  -2.992  1.00  0.00     0.091 A 
ATOM      2  C6  UNK     1      16.509  11.481  -4.175  1.00  0.00     0.048 A 
ATOM      3  C7  UNK     1      15.591  11.341  -5.248  1.00  0.00    -0.007 A 
ATOM      4  C8  UNK     1      15.667  11.557  -6.636  1.00  0.00     0.014 A 
ATOM      5  C9  UNK     1      14.534  11.330  -7.426  1.00  0.00     0.001 A 
ATOM      6  C10 UNK     1      13.345  10.891  -6.850  1.00  0.00     0.002 A 
ATOM      7  C11 UNK     1      13.249  10.664  -5.473  1.00  0.00     0.030 A 
ATOM      8  C12 UNK     1      14.392  10.897  -4.697  1.00  0.00     0.043 A 
ATOM      9  N3  UNK     1      14.592  10.764  -3.341  1.00  0.00    -0.352 N 
ATOM     10  H9  UNK     1      13.878  10.456  -2.693  1.00  0.00     0.166 HD
ENDROOT
BRANCH   1  11
ATOM     11  C4  UNK     1      16.454  11.147  -1.662  1.00  0.00     0.242 C 
ATOM     12  O1  UNK     1      15.800  11.171  -0.626  1.00  0.00    -0.278 OA
BRANCH  11  13
ATOM     13  S2  UNK     1      18.205  11.219  -1.602  1.00  0.00    -0.017 SA
BRANCH  13  14
ATOM     14  C3  UNK     1      18.352  12.852  -1.007  1.00  0.00     0.167 A 
ATOM     15  N2  UNK     1      19.283  13.148  -0.125  1.00  0.00    -0.134 NA
ATOM     16  N1  UNK     1      19.296  14.495   0.181  1.00  0.00    -0.134 NA
ATOM     17  C2  UNK     1      18.378  15.163  -0.483  1.00  0.00     0.159 A 
ATOM     18  S3  UNK     1      17.423  14.194  -1.530  1.00  0.00    -0.033 SA
BRANCH  17  19
ATOM     19  S1  UNK     1      18.149  16.889  -0.312  1.00  0.00    -0.106 SA
ATOM     20  C1  UNK     1      17.941  17.029   1.478  1.00  0.00     0.098 C 
ENDBRANCH  17  19
ENDBRANCH  13  14
ENDBRANCH  11  13
ENDBRANCH   1  11
TORSDOF 4
ENDMDL
MODEL 3
REMARK VINA RESULT:      -5.9     30.605     32.563
REMARK  4 active torsions:
REMARK  status: ('A' for Active; 'I' for Inactive)
REMARK    1  A    between atoms: S1_2  and  C2_3 
REMARK    2  A    between atoms: C3_6  and  S2_7 
REMARK    3  A    between atoms: S2_7  and  C4_8 
REMARK    4  A    between atoms: C4_8  and  C5_10 
ROOT
ATOM      1  C5  UNK     1       6.080   1.540 -14.701  1.00  0.00     0.091 A 
ATOM      2  C6  UNK     1       5.001   2.043 -15.413  1.00  0.00     0.048 A 
ATOM      3  C7  UNK     1       5.165   3.443 -15.569  1.00  0.00    -0.007 A 
ATOM      4  C8  UNK     1       4.409   4.454 -16.192  1.00  0.00     0.014 A 
ATOM      5  C9  UNK     1       4.883   5.771 -16.174  1.00  0.00     0.001 A 
ATOM      6  C10 UNK     1       6.085   6.083 -15.544  1.00  0.00     0.002 A 
ATOM      7  C11 UNK     1       6.849   5.095 -14.914  1.00  0.00     0.030 A 
ATOM      8  C12 UNK     1       6.360   3.782 -14.942  1.00  0.00     0.043 A 
ATOM      9  N3  UNK     1       6.886   2.623 -14.417  1.00  0.00    -0.352 N 
ATOM     10  H9  UNK     1       7.759   2.580 -13.906  1.00  0.00     0.166 HD
ENDROOT
BRANCH   1  11
ATOM     11  C4  UNK     1       6.311   0.154 -14.342  1.00  0.00     0.242 C 
ATOM     12  O1  UNK     1       5.797  -0.405 -13.381  1.00  0.00    -0.278 OA
BRANCH  11  13
ATOM     13  S2  UNK     1       7.471  -0.700 -15.344  1.00  0.00    -0.017 SA
BRANCH  13  14
ATOM     14  C3  UNK     1       6.331  -1.464 -16.421  1.00  0.00     0.167 A 
ATOM     15  N2  UNK     1       5.986  -2.720 -16.226  1.00  0.00    -0.134 NA
ATOM     16  N1  UNK     1       5.027  -3.138 -17.129  1.00  0.00    -0.134 NA
ATOM     17  C2  UNK     1       4.685  -2.183 -17.966  1.00  0.00     0.159 A 
ATOM     18  S3  UNK     1       5.514  -0.700 -17.718  1.00  0.00    -0.033 SA
BRANCH  17  19
ATOM     19  S1  UNK     1       3.491  -2.406 -19.225  1.00  0.00    -0.106 SA
ATOM     20  C1  UNK     1       2.785  -4.000 -18.746  1.00  0.00     0.098 C 
ENDBRANCH  17  19
ENDBRANCH  13  14
ENDBRANCH  11  13
ENDBRANCH   1  11
TORSDOF 4
ENDMDL
MODEL 4
REMARK VINA RESULT:      -5.9     18.257     19.644
REMARK  4 active torsions:
REMARK  status: ('A' for Active; 'I' for Inactive)
REMARK    1  A    between atoms: S1_2  and  C2_3 
REMARK    2  A    between atoms: C3_6  and  S2_7 
REMARK    3  A    between atoms: S2_7  and  C4_8 
REMARK    4  A    between atoms: C4_8  and  C5_10 
ROOT
ATOM      1  C5  UNK     1      20.723   8.382  -6.831  1.00  0.00     0.091 A 
ATOM      2  C6  UNK     1      21.978   8.043  -7.316  1.00  0.00     0.048 A 
ATOM      3  C7  UNK     1      22.770   7.558  -6.244  1.00  0.00    -0.007 A 
ATOM      4  C8  UNK     1      24.088   7.075  -6.141  1.00  0.00     0.014 A 
ATOM      5  C9  UNK     1      24.564   6.648  -4.896  1.00  0.00     0.001 A 
ATOM      6  C10 UNK     1      23.748   6.702  -3.769  1.00  0.00     0.002 A 
ATOM      7  C11 UNK     1      22.438   7.184  -3.847  1.00  0.00     0.030 A 
ATOM      8  C12 UNK     1      21.977   7.607  -5.101  1.00  0.00     0.043 A 
ATOM      9  N3  UNK     1      20.755   8.117  -5.477  1.00  0.00    -0.352 N 
ATOM     10  H9  UNK     1      19.982   8.260  -4.839  1.00  0.00     0.166 HD
ENDROOT
BRANCH   1  11
ATOM     11  C4  UNK     1      19.608   8.899  -7.600  1.00  0.00     0.242 C 
ATOM     12  O1  UNK     1      18.872   8.211  -8.298  1.00  0.00    -0.278 OA
BRANCH  11  13
ATOM     13  S2  UNK     1      19.399  10.640  -7.546  1.00  0.00    -0.017 SA
BRANCH  13  14
ATOM     14  C3  UNK     1      18.040  10.678  -6.453  1.00  0.00     0.167 A 
ATOM     15  N2  UNK     1      18.138  10.122  -5.264  1.00  0.00    -0.134 NA
ATOM     16  N1  UNK     1      16.995  10.307  -4.511  1.00  0.00    -0.134 NA
ATOM     17  C2  UNK     1      16.080  10.996  -5.159  1.00  0.00     0.159 A 
ATOM     18  S3  UNK     1      16.546  11.467  -6.743  1.00  0.00    -0.033 SA
BRANCH  17  19
ATOM     19  S1  UNK     1      14.524  11.394  -4.467  1.00  0.00    -0.106 SA
ATOM     20  C1  UNK     1      13.723  12.202  -5.873  1.00  0.00     0.098 C 
ENDBRANCH  17  19
ENDBRANCH  13  14
ENDBRANCH  11  13
ENDBRANCH   1  11
TORSDOF 4
ENDMDL
MODEL 5
REMARK VINA RESULT:      -5.7     30.490     31.708
REMARK  4 active torsions:
REMARK  status: ('A' for Active; 'I' for Inactive)
REMARK    1  A    between atoms: S1_2  and  C2_3 
REMARK    2  A    between atoms: C3_6  and  S2_7 
REMARK    3  A    between atoms: S2_7  and  C4_8 
REMARK    4  A    between atoms: C4_8  and  C5_10 
ROOT
ATOM      1  C5  UNK     1       5.383   1.825 -15.251  1.00  0.00     0.091 A 
ATOM      2  C6  UNK     1       4.442   2.615 -15.896  1.00  0.00     0.048 A 
ATOM      3  C7  UNK     1       4.867   3.968 -15.849  1.00  0.00    -0.007 A 
ATOM      4  C8  UNK     1       4.334   5.178 -16.331  1.00  0.00     0.014 A 
ATOM      5  C9  UNK     1       5.040   6.368 -16.119  1.00  0.00     0.001 A 
ATOM      6  C10 UNK     1       6.255   6.359 -15.438  1.00  0.00     0.002 A 
ATOM      7  C11 UNK     1       6.800   5.169 -14.946  1.00  0.00     0.030 A 
ATOM      8  C12 UNK     1       6.080   3.987 -15.167  1.00  0.00     0.043 A 
ATOM      9  N3  UNK     1       6.364   2.689 -14.807  1.00  0.00    -0.352 N 
ATOM     10  H9  UNK     1       7.194   2.413 -14.297  1.00  0.00     0.166 HD
ENDROOT
BRANCH   1  11
ATOM     11  C4  UNK     1       5.342   0.385 -15.091  1.00  0.00     0.242 C 
ATOM     12  O1  UNK     1       4.583  -0.357 -15.705  1.00  0.00    -0.278 OA
BRANCH  11  13
ATOM     13  S2  UNK     1       6.419  -0.268 -13.870  1.00  0.00    -0.017 SA
BRANCH  13  14
ATOM     14  C3  UNK     1       7.760  -0.646 -14.919  1.00  0.00     0.167 A 
ATOM     15  N2  UNK     1       8.525   0.321 -15.380  1.00  0.00    -0.134 NA
ATOM     16  N1  UNK     1       9.575  -0.166 -16.135  1.00  0.00    -0.134 NA
ATOM     17  C2  UNK     1       9.562  -1.479 -16.214  1.00  0.00     0.159 A 
ATOM     18  S3  UNK     1       8.261  -2.221 -15.374  1.00  0.00    -0.033 SA
BRANCH  17  19
ATOM     19  S1  UNK     1      10.763  -2.389 -17.101  1.00  0.00    -0.106 SA
ATOM     20  C1  UNK     1      12.265  -1.475 -16.676  1.00  0.00     0.098 C 
ENDBRANCH  17  19
ENDBRANCH  13  14
ENDBRANCH  11  13
ENDBRANCH   1  11
TORSDOF 4
ENDMDL
MODEL 6
REMARK VINA RESULT:      -5.6      3.831      5.032
REMARK  4 active torsions:
REMARK  status: ('A' for Active; 'I' for Inactive)
REMARK    1  A    between atoms: S1_2  and  C2_3 
REMARK    2  A    between atoms: C3_6  and  S2_7 
REMARK    3  A    between atoms: S2_7  and  C4_8 
REMARK    4  A    between atoms: C4_8  and  C5_10 
ROOT
ATOM      1  C5  UNK     1      18.209   3.750   8.970  1.00  0.00     0.091 A 
ATOM      2  C6  UNK     1      19.516   3.692   9.430  1.00  0.00     0.048 A 
ATOM      3  C7  UNK     1      20.095   4.984   9.335  1.00  0.00    -0.007 A 
ATOM      4  C8  UNK     1      21.359   5.516   9.653  1.00  0.00     0.014 A 
ATOM      5  C9  UNK     1      21.598   6.879   9.442  1.00  0.00     0.001 A 
ATOM      6  C10 UNK     1      20.603   7.701   8.921  1.00  0.00     0.002 A 
ATOM      7  C11 UNK     1      19.343   7.192   8.593  1.00  0.00     0.030 A 
ATOM      8  C12 UNK     1      19.119   5.826   8.810  1.00  0.00     0.043 A 
ATOM      9  N3  UNK     1      17.998   5.059   8.588  1.00  0.00    -0.352 N 
ATOM     10  H9  UNK     1      17.132   5.421   8.208  1.00  0.00     0.166 HD
ENDROOT
BRANCH   1  11
ATOM     11  C4  UNK     1      17.261   2.654   8.915  1.00  0.00     0.242 C 
ATOM     12  O1  UNK     1      16.576   2.381   7.936  1.00  0.00    -0.278 OA
BRANCH  11  13
ATOM     13  S2  UNK     1      17.073   1.746  10.404  1.00  0.00    -0.017 SA
BRANCH  13  14
ATOM     14  C3  UNK     1      16.571   3.069  11.423  1.00  0.00     0.167 A 
ATOM     15  N2  UNK     1      15.392   3.626  11.243  1.00  0.00    -0.134 NA
ATOM     16  N1  UNK     1      15.135   4.608  12.180  1.00  0.00    -0.134 NA
ATOM     17  C2  UNK     1      16.127   4.753  13.031  1.00  0.00     0.159 A 
ATOM     18  S3  UNK     1      17.455   3.702  12.748  1.00  0.00    -0.033 SA
BRANCH  17  19
ATOM     19  S1  UNK     1      16.097   5.917  14.335  1.00  0.00    -0.106 SA
ATOM     20  C1  UNK     1      17.281   7.141  13.728  1.00  0.00     0.098 C 
ENDBRANCH  17  19
ENDBRANCH  13  14
ENDBRANCH  11  13
ENDBRANCH   1  11
TORSDOF 4
ENDMDL
MODEL 7
REMARK VINA RESULT:      -5.6      4.873      6.539
REMARK  4 active torsions:
REMARK  status: ('A' for Active; 'I' for Inactive)
REMARK    1  A    between atoms: S1_2  and  C2_3 
REMARK    2  A    between atoms: C3_6  and  S2_7 
REMARK    3  A    between atoms: S2_7  and  C4_8 
REMARK    4  A    between atoms: C4_8  and  C5_10 
ROOT
ATOM      1  C5  UNK     1      14.457   3.495  11.934  1.00  0.00     0.091 A 
ATOM      2  C6  UNK     1      13.436   2.566  11.800  1.00  0.00     0.048 A 
ATOM      3  C7  UNK     1      13.604   1.871  10.574  1.00  0.00    -0.007 A 
ATOM      4  C8  UNK     1      12.894   0.841   9.928  1.00  0.00     0.014 A 
ATOM      5  C9  UNK     1      13.357   0.362   8.697  1.00  0.00     0.001 A 
ATOM      6  C10 UNK     1      14.503   0.897   8.113  1.00  0.00     0.002 A 
ATOM      7  C11 UNK     1      15.219   1.924   8.735  1.00  0.00     0.030 A 
ATOM      8  C12 UNK     1      14.743   2.392   9.968  1.00  0.00     0.043 A 
ATOM      9  N3  UNK     1      15.232   3.375  10.798  1.00  0.00    -0.352 N 
ATOM     10  H9  UNK     1      16.060   3.921  10.600  1.00  0.00     0.166 HD
ENDROOT
BRANCH   1  11
ATOM     11  C4  UNK     1      14.667   4.396  13.050  1.00  0.00     0.242 C 
ATOM     12  O1  UNK     1      13.891   5.287  13.373  1.00  0.00    -0.278 OA
BRANCH  11  13
ATOM     13  S2  UNK     1      16.185   4.196  13.905  1.00  0.00    -0.017 SA
BRANCH  13  14
ATOM     14  C3  UNK     1      17.154   5.252  12.912  1.00  0.00     0.167 A 
ATOM     15  N2  UNK     1      16.923   6.548  12.913  1.00  0.00    -0.134 NA
ATOM     16  N1  UNK     1      17.826   7.235  12.125  1.00  0.00    -0.134 NA
ATOM     17  C2  UNK     1      18.704   6.433  11.563  1.00  0.00     0.159 A 
ATOM     18  S3  UNK     1      18.490   4.774  11.951  1.00  0.00    -0.033 SA
BRANCH  17  19
ATOM     19  S1  UNK     1      19.977   7.007  10.510  1.00  0.00    -0.106 SA
ATOM     20  C1  UNK     1      19.104   7.082   8.929  1.00  0.00     0.098 C 
ENDBRANCH  17  19
ENDBRANCH  13  14
ENDBRANCH  11  13
ENDBRANCH   1  11
TORSDOF 4
ENDMDL
MODEL 8
REMARK VINA RESULT:      -5.5     33.980     35.921
REMARK  4 active torsions:
REMARK  status: ('A' for Active; 'I' for Inactive)
REMARK    1  A    between atoms: S1_2  and  C2_3 
REMARK    2  A    between atoms: C3_6  and  S2_7 
REMARK    3  A    between atoms: S2_7  and  C4_8 
REMARK    4  A    between atoms: C4_8  and  C5_10 
ROOT
ATOM      1  C5  UNK     1       2.672  -2.620 -19.200  1.00  0.00     0.091 A 
ATOM      2  C6  UNK     1       3.147  -3.894 -18.927  1.00  0.00     0.048 A 
ATOM      3  C7  UNK     1       2.285  -4.846 -19.531  1.00  0.00    -0.007 A 
ATOM      4  C8  UNK     1       2.271  -6.252 -19.594  1.00  0.00     0.014 A 
ATOM      5  C9  UNK     1       1.253  -6.893 -20.310  1.00  0.00     0.001 A 
ATOM      6  C10 UNK     1       0.262  -6.153 -20.950  1.00  0.00     0.002 A 
ATOM      7  C11 UNK     1       0.254  -4.756 -20.895  1.00  0.00     0.030 A 
ATOM      8  C12 UNK     1       1.280  -4.130 -20.175  1.00  0.00     0.043 A 
ATOM      9  N3  UNK     1       1.527  -2.794 -19.952  1.00  0.00    -0.352 N 
ATOM     10  H9  UNK     1       0.948  -2.045 -20.310  1.00  0.00     0.166 HD
ENDROOT
BRANCH   1  11
ATOM     11  C4  UNK     1       3.269  -1.365 -18.786  1.00  0.00     0.242 C 
ATOM     12  O1  UNK     1       2.632  -0.385 -18.418  1.00  0.00    -0.278 OA
BRANCH  11  13
ATOM     13  S2  UNK     1       5.016  -1.284 -18.915  1.00  0.00    -0.017 SA
BRANCH  13  14
ATOM     14  C3  UNK     1       5.323  -0.447 -17.416  1.00  0.00     0.167 A 
ATOM     15  N2  UNK     1       5.225  -1.092 -16.273  1.00  0.00    -0.134 NA
ATOM     16  N1  UNK     1       5.568  -0.294 -15.198  1.00  0.00    -0.134 NA
ATOM     17  C2  UNK     1       5.913   0.919 -15.572  1.00  0.00     0.159 A 
ATOM     18  S3  UNK     1       5.840   1.180 -17.267  1.00  0.00    -0.033 SA
BRANCH  17  19
ATOM     19  S1  UNK     1       6.401   2.158 -14.439  1.00  0.00    -0.106 SA
ATOM     20  C1  UNK     1       5.720   3.633 -15.233  1.00  0.00     0.098 C 
ENDBRANCH  17  19
ENDBRANCH  13  14
ENDBRANCH  11  13
ENDBRANCH   1  11
TORSDOF 4
ENDMDL
MODEL 9
REMARK VINA RESULT:      -5.4      4.925      6.882
REMARK  4 active torsions:
REMARK  status: ('A' for Active; 'I' for Inactive)
REMARK    1  A    between atoms: S1_2  and  C2_3 
REMARK    2  A    between atoms: C3_6  and  S2_7 
REMARK    3  A    between atoms: S2_7  and  C4_8 
REMARK    4  A    between atoms: C4_8  and  C5_10 
ROOT
ATOM      1  C5  UNK     1      14.992   2.916  11.054  1.00  0.00     0.091 A 
ATOM      2  C6  UNK     1      15.840   2.858   9.958  1.00  0.00     0.048 A 
ATOM      3  C7  UNK     1      15.459   1.764   9.139  1.00  0.00    -0.007 A 
ATOM      4  C8  UNK     1      15.939   1.235   7.926  1.00  0.00     0.014 A 
ATOM      5  C9  UNK     1      15.302   0.122   7.366  1.00  0.00     0.001 A 
ATOM      6  C10 UNK     1      14.208  -0.462   8.000  1.00  0.00     0.002 A 
ATOM      7  C11 UNK     1      13.718   0.044   9.209  1.00  0.00     0.030 A 
ATOM      8  C12 UNK     1      14.368   1.159   9.755  1.00  0.00     0.043 A 
ATOM      9  N3  UNK     1      14.113   1.862  10.911  1.00  0.00    -0.352 N 
ATOM     10  H9  UNK     1      13.366   1.637  11.556  1.00  0.00     0.166 HD
ENDROOT
BRANCH   1  11
ATOM     11  C4  UNK     1      15.024   3.895  12.123  1.00  0.00     0.242 C 
ATOM     12  O1  UNK     1      14.197   4.788  12.267  1.00  0.00    -0.278 OA
BRANCH  11  13
ATOM     13  S2  UNK     1      16.404   3.789  13.201  1.00  0.00    -0.017 SA
BRANCH  13  14
ATOM     14  C3  UNK     1      17.410   4.975  12.411  1.00  0.00     0.167 A 
ATOM     15  N2  UNK     1      17.194   6.257  12.613  1.00  0.00    -0.134 NA
ATOM     16  N1  UNK     1      18.124   7.046  11.965  1.00  0.00    -0.134 NA
ATOM     17  C2  UNK     1      19.006   6.330  11.302  1.00  0.00     0.159 A 
ATOM     18  S3  UNK     1      18.763   4.634  11.415  1.00  0.00    -0.033 SA
BRANCH  17  19
ATOM     19  S1  UNK     1      20.311   7.044  10.382  1.00  0.00    -0.106 SA
ATOM     20  C1  UNK     1      19.477   7.386   8.815  1.00  0.00     0.098 C 
ENDBRANCH  17  19
ENDBRANCH  13  14
ENDBRANCH  11  13
ENDBRANCH   1  11
TORSDOF 4
ENDMDL
MODEL 10
REMARK VINA RESULT:      -5.4     34.615     36.409
REMARK  4 active torsions:
REMARK  status: ('A' for Active; 'I' for Inactive)
REMARK    1  A    between atoms: S1_2  and  C2_3 
REMARK    2  A    between atoms: C3_6  and  S2_7 
REMARK    3  A    between atoms: S2_7  and  C4_8 
REMARK    4  A    between atoms: C4_8  and  C5_10 
ROOT
ATOM      1  C5  UNK     1       3.338  -2.726 -18.680  1.00  0.00     0.091 A 
ATOM      2  C6  UNK     1       2.217  -2.505 -19.467  1.00  0.00     0.048 A 
ATOM      3  C7  UNK     1       1.718  -3.754 -19.919  1.00  0.00    -0.007 A 
ATOM      4  C8  UNK     1       0.629  -4.140 -20.722  1.00  0.00     0.014 A 
ATOM      5  C9  UNK     1       0.407  -5.501 -20.964  1.00  0.00     0.001 A 
ATOM      6  C10 UNK     1       1.254  -6.464 -20.421  1.00  0.00     0.002 A 
ATOM      7  C11 UNK     1       2.345  -6.102 -19.626  1.00  0.00     0.030 A 
ATOM      8  C12 UNK     1       2.553  -4.736 -19.393  1.00  0.00     0.043 A 
ATOM      9  N3  UNK     1       3.526  -4.093 -18.662  1.00  0.00    -0.352 N 
ATOM     10  H9  UNK     1       4.267  -4.571 -18.166  1.00  0.00     0.166 HD
ENDROOT
BRANCH   1  11
ATOM     11  C4  UNK     1       4.136  -1.720 -18.008  1.00  0.00     0.242 C 
ATOM     12  O1  UNK     1       4.788  -1.922 -16.990  1.00  0.00    -0.278 OA
BRANCH  11  13
ATOM     13  S2  UNK     1       4.061  -0.111 -18.703  1.00  0.00    -0.017 SA
BRANCH  13  14
ATOM     14  C3  UNK     1       2.767   0.511 -17.713  1.00  0.00     0.167 A 
ATOM     15  N2  UNK     1       2.971   0.740 -16.433  1.00  0.00    -0.134 NA
ATOM     16  N1  UNK     1       1.862   1.293 -15.823  1.00  0.00    -0.134 NA
ATOM     17  C2  UNK     1       0.866   1.462 -16.665  1.00  0.00     0.159 A 
ATOM     18  S3  UNK     1       1.207   0.953 -18.269  1.00  0.00    -0.033 SA
BRANCH  17  19
ATOM     19  S1  UNK     1      -0.674   2.144 -16.191  1.00  0.00    -0.106 SA
ATOM     20  C1  UNK     1      -1.404   2.493 -17.808  1.00  0.00     0.098 C 
ENDBRANCH  17  19
ENDBRANCH  13  14
ENDBRANCH  11  13
ENDBRANCH   1  11
TORSDOF 4
ENDMDL
