MODEL 1
REMARK VINA RESULT:      -6.9      0.000      0.000
REMARK  7 active torsions:
REMARK  status: ('A' for Active; 'I' for Inactive)
REMARK    1  A    between atoms: O1_2  and  C2_3 
REMARK    2  A    between atoms: C4_5  and  N1_6 
REMARK    3  A    between atoms: N1_6  and  C5_7 
REMARK       I    between atoms: N1_6  and  C12_15 
REMARK    4  A    between atoms: C5_7  and  C6_8 
REMARK    5  A    between atoms: C12_15  and  C13_17 
REMARK    6  A    between atoms: C13_17  and  N2_18 
REMARK    7  A    between atoms: C22_29  and  C23_30 
ROOT
ATOM      1  N1  UNK     1       6.434   7.348 -16.176  1.00  0.00    -0.312 N 
ATOM      2  C12 UNK     1       7.753   7.662 -16.507  1.00  0.00     0.244 C 
ATOM      3  O2  UNK     1       8.711   6.945 -16.200  1.00  0.00    -0.271 OA
ENDROOT
BRANCH   1   4
ATOM      4  C4  UNK     1       6.146   5.995 -15.795  1.00  0.00     0.040 A 
ATOM      5  C3  UNK     1       5.018   5.358 -16.321  1.00  0.00     0.067 A 
ATOM      6  C2  UNK     1       4.754   4.002 -16.043  1.00  0.00     0.081 A 
ATOM      7  C22 UNK     1       5.645   3.267 -15.240  1.00  0.00     0.011 A 
ATOM      8  C21 UNK     1       6.733   3.939 -14.651  1.00  0.00     0.017 A 
ATOM      9  C20 UNK     1       6.982   5.294 -14.929  1.00  0.00     0.031 A 
BRANCH   6  10
ATOM     10  O1  UNK     1       3.621   3.376 -16.483  1.00  0.00    -0.355 OA
ATOM     11  C1  UNK     1       3.328   3.404 -17.869  1.00  0.00     0.210 C 
ENDBRANCH   6  10
BRANCH   7  12
ATOM     12  C23 UNK     1       5.532   1.772 -15.039  1.00  0.00     0.015 A 
ATOM     13  C24 UNK     1       5.162   0.762 -15.902  1.00  0.00     0.154 A 
ATOM     14  N5  UNK     1       5.252  -0.469 -15.363  1.00  0.00    -0.162 NA
ATOM     15  N6  UNK     1       5.690  -0.306 -14.103  1.00  0.00    -0.162 NA
ATOM     16  C25 UNK     1       5.841   1.017 -13.924  1.00  0.00     0.154 A 
ENDBRANCH   7  12
ENDBRANCH   1   4
BRANCH   1  17
ATOM     17  C5  UNK     1       5.297   8.190 -16.580  1.00  0.00     0.170 C 
BRANCH  17  18
ATOM     18  C6  UNK     1       4.690   8.997 -15.466  1.00  0.00    -0.038 A 
ATOM     19  C7  UNK     1       5.185   8.897 -14.161  1.00  0.00     0.009 A 
ATOM     20  C8  UNK     1       4.679   9.710 -13.150  1.00  0.00     0.002 A 
ATOM     21  C9  UNK     1       3.664  10.628 -13.434  1.00  0.00     0.024 A 
ATOM     22  C10 UNK     1       3.149  10.711 -14.723  1.00  0.00     0.034 A 
ATOM     23 Cl1  UNK     1       1.895  11.843 -15.072  1.00  0.00    -0.084 Cl
ATOM     24  C11 UNK     1       3.644   9.900 -15.737  1.00  0.00     0.032 A 
ENDBRANCH  17  18
ENDBRANCH   1  17
BRANCH   2  25
ATOM     25  C13 UNK     1       8.005   8.903 -17.328  1.00  0.00     0.250 C 
BRANCH  25  26
ATOM     26  N2  UNK     1       8.412  10.078 -16.579  1.00  0.00    -0.263 N 
ATOM     27  N3  UNK     1       9.344   9.892 -15.613  1.00  0.00     0.006 NA
ATOM     28  N4  UNK     1       8.994  10.637 -14.573  1.00  0.00    -0.158 NA
ATOM     29  C14 UNK     1       7.913  11.391 -14.939  1.00  0.00     0.102 A 
ATOM     30  C15 UNK     1       7.109  12.264 -14.193  1.00  0.00     0.035 A 
ATOM     31  C19 UNK     1       7.619  11.164 -16.279  1.00  0.00     0.079 A 
ATOM     32  C16 UNK     1       6.077  12.943 -14.851  1.00  0.00     0.002 A 
ATOM     33  C17 UNK     1       5.872  12.779 -16.223  1.00  0.00     0.002 A 
ATOM     34  C18 UNK     1       6.633  11.873 -16.971  1.00  0.00     0.033 A 
ENDBRANCH  25  26
ENDBRANCH   2  25
TORSDOF 7
ENDMDL
MODEL 2
REMARK VINA RESULT:      -6.9     17.536     21.026
REMARK  7 active torsions:
REMARK  status: ('A' for Active; 'I' for Inactive)
REMARK    1  A    between atoms: O1_2  and  C2_3 
REMARK    2  A    between atoms: C4_5  and  N1_6 
REMARK    3  A    between atoms: N1_6  and  C5_7 
REMARK       I    between atoms: N1_6  and  C12_15 
REMARK    4  A    between atoms: C5_7  and  C6_8 
REMARK    5  A    between atoms: C12_15  and  C13_17 
REMARK    6  A    between atoms: C13_17  and  N2_18 
REMARK    7  A    between atoms: C22_29  and  C23_30 
ROOT
ATOM      1  N1  UNK     1      18.497  13.818  -0.983  1.00  0.00    -0.312 N 
ATOM      2  C12 UNK     1      18.253  12.535  -1.474  1.00  0.00     0.244 C 
ATOM      3  O2  UNK     1      19.078  11.903  -2.140  1.00  0.00    -0.271 OA
ENDROOT
BRANCH   1   4
ATOM      4  C4  UNK     1      19.859  14.267  -0.938  1.00  0.00     0.040 A 
ATOM      5  C3  UNK     1      20.593  14.354  -2.125  1.00  0.00     0.067 A 
ATOM      6  C2  UNK     1      21.901  14.878  -2.134  1.00  0.00     0.081 A 
ATOM      7  C22 UNK     1      22.476  15.340  -0.937  1.00  0.00     0.011 A 
ATOM      8  C21 UNK     1      21.759  15.174   0.265  1.00  0.00     0.017 A 
ATOM      9  C20 UNK     1      20.458  14.643   0.262  1.00  0.00     0.031 A 
BRANCH   6  10
ATOM     10  O1  UNK     1      22.667  14.904  -3.266  1.00  0.00    -0.355 OA
ATOM     11  C1  UNK     1      23.250  13.693  -3.715  1.00  0.00     0.210 C 
ENDBRANCH   6  10
BRANCH   7  12
ATOM     12  C23 UNK     1      23.797  16.075  -0.886  1.00  0.00     0.015 A 
ATOM     13  C24 UNK     1      24.143  17.355  -1.264  1.00  0.00     0.154 A 
ATOM     14  N5  UNK     1      25.424  17.671  -0.997  1.00  0.00    -0.162 NA
ATOM     15  N6  UNK     1      25.976  16.587  -0.426  1.00  0.00    -0.162 NA
ATOM     16  C25 UNK     1      25.010  15.653  -0.375  1.00  0.00     0.154 A 
ENDBRANCH   7  12
ENDBRANCH   1   4
BRANCH   1  17
ATOM     17  C5  UNK     1      17.520  14.546  -0.158  1.00  0.00     0.170 C 
BRANCH  17  18
ATOM     18  C6  UNK     1      16.618  15.472  -0.927  1.00  0.00    -0.038 A 
ATOM     19  C7  UNK     1      17.104  16.192  -2.024  1.00  0.00     0.009 A 
ATOM     20  C8  UNK     1      16.245  16.980  -2.787  1.00  0.00     0.002 A 
ATOM     21  C9  UNK     1      14.890  17.061  -2.454  1.00  0.00     0.024 A 
ATOM     22  C10 UNK     1      14.408  16.369  -1.348  1.00  0.00     0.034 A 
ATOM     23 Cl1  UNK     1      12.736  16.470  -0.937  1.00  0.00    -0.084 Cl
ATOM     24  C11 UNK     1      15.259  15.585  -0.577  1.00  0.00     0.032 A 
ENDBRANCH  17  18
ENDBRANCH   1  17
BRANCH   2  25
ATOM     25  C13 UNK     1      16.944  11.873  -1.118  1.00  0.00     0.250 C 
BRANCH  25  26
ATOM     26  N2  UNK     1      16.187  11.340  -2.237  1.00  0.00    -0.263 N 
ATOM     27  N3  UNK     1      16.565  10.124  -2.703  1.00  0.00     0.006 NA
ATOM     28  N4  UNK     1      16.494  10.166  -4.027  1.00  0.00    -0.158 NA
ATOM     29  C14 UNK     1      15.944  11.367  -4.382  1.00  0.00     0.102 A 
ATOM     30  C15 UNK     1      15.738  11.944  -5.643  1.00  0.00     0.035 A 
ATOM     31  C19 UNK     1      15.591  12.075  -3.239  1.00  0.00     0.079 A 
ATOM     32  C16 UNK     1      15.106  13.191  -5.708  1.00  0.00     0.002 A 
ATOM     33  C17 UNK     1      14.662  13.831  -4.548  1.00  0.00     0.002 A 
ATOM     34  C18 UNK     1      14.907  13.292  -3.279  1.00  0.00     0.033 A 
ENDBRANCH  25  26
ENDBRANCH   2  25
TORSDOF 7
ENDMDL
MODEL 3
REMARK VINA RESULT:      -6.7     27.740     29.626
REMARK  7 active torsions:
REMARK  status: ('A' for Active; 'I' for Inactive)
REMARK    1  A    between atoms: O1_2  and  C2_3 
REMARK    2  A    between atoms: C4_5  and  N1_6 
REMARK    3  A    between atoms: N1_6  and  C5_7 
REMARK       I    between atoms: N1_6  and  C12_15 
REMARK    4  A    between atoms: C5_7  and  C6_8 
REMARK    5  A    between atoms: C12_15  and  C13_17 
REMARK    6  A    between atoms: C13_17  and  N2_18 
REMARK    7  A    between atoms: C22_29  and  C23_30 
ROOT
ATOM      1  N1  UNK     1      16.926   3.033  10.595  1.00  0.00    -0.312 N 
ATOM      2  C12 UNK     1      16.809   3.028  11.986  1.00  0.00     0.244 C 
ATOM      3  O2  UNK     1      17.779   2.908  12.741  1.00  0.00    -0.271 OA
ENDROOT
BRANCH   1   4
ATOM      4  C4  UNK     1      18.226   3.271  10.037  1.00  0.00     0.040 A 
ATOM      5  C3  UNK     1      18.535   4.537   9.529  1.00  0.00     0.067 A 
ATOM      6  C2  UNK     1      19.829   4.835   9.057  1.00  0.00     0.081 A 
ATOM      7  C22 UNK     1      20.835   3.854   9.113  1.00  0.00     0.011 A 
ATOM      8  C21 UNK     1      20.493   2.560   9.551  1.00  0.00     0.017 A 
ATOM      9  C20 UNK     1      19.197   2.273  10.012  1.00  0.00     0.031 A 
BRANCH   6  10
ATOM     10  O1  UNK     1      20.137   6.039   8.487  1.00  0.00    -0.355 OA
ATOM     11  C1  UNK     1      19.153   7.059   8.490  1.00  0.00     0.210 C 
ENDBRANCH   6  10
BRANCH   7  12
ATOM     12  C23 UNK     1      22.286   4.142   8.795  1.00  0.00     0.015 A 
ATOM     13  C24 UNK     1      23.248   4.847   9.487  1.00  0.00     0.154 A 
ATOM     14  N5  UNK     1      24.461   4.824   8.903  1.00  0.00    -0.162 NA
ATOM     15  N6  UNK     1      24.334   4.091   7.785  1.00  0.00    -0.162 NA
ATOM     16  C25 UNK     1      23.048   3.704   7.729  1.00  0.00     0.154 A 
ENDBRANCH   7  12
ENDBRANCH   1   4
BRANCH   1  17
ATOM     17  C5  UNK     1      15.767   3.214   9.707  1.00  0.00     0.170 C 
BRANCH  17  18
ATOM     18  C6  UNK     1      15.288   1.954   9.040  1.00  0.00    -0.038 A 
ATOM     19  C7  UNK     1      16.000   1.398   7.971  1.00  0.00     0.009 A 
ATOM     20  C8  UNK     1      15.603   0.185   7.414  1.00  0.00     0.002 A 
ATOM     21  C9  UNK     1      14.481  -0.481   7.917  1.00  0.00     0.024 A 
ATOM     22  C10 UNK     1      13.754   0.082   8.959  1.00  0.00     0.034 A 
ATOM     23 Cl1  UNK     1      12.369  -0.739   9.578  1.00  0.00    -0.084 Cl
ATOM     24  C11 UNK     1      14.140   1.295   9.518  1.00  0.00     0.032 A 
ENDBRANCH  17  18
ENDBRANCH   1  17
BRANCH   2  25
ATOM     25  C13 UNK     1      15.440   3.239  12.586  1.00  0.00     0.250 C 
BRANCH  25  26
ATOM     26  N2  UNK     1      15.126   4.605  12.966  1.00  0.00    -0.263 N 
ATOM     27  N3  UNK     1      16.144   5.499  12.918  1.00  0.00     0.006 NA
ATOM     28  N4  UNK     1      16.033   6.286  13.981  1.00  0.00    -0.158 NA
ATOM     29  C14 UNK     1      14.869   5.965  14.623  1.00  0.00     0.102 A 
ATOM     30  C15 UNK     1      14.333   6.427  15.833  1.00  0.00     0.035 A 
ATOM     31  C19 UNK     1      14.189   4.993  13.898  1.00  0.00     0.079 A 
ATOM     32  C16 UNK     1      13.081   5.944  16.233  1.00  0.00     0.002 A 
ATOM     33  C17 UNK     1      12.369   5.049  15.430  1.00  0.00     0.002 A 
ATOM     34  C18 UNK     1      12.913   4.540  14.245  1.00  0.00     0.033 A 
ENDBRANCH  25  26
ENDBRANCH   2  25
TORSDOF 7
ENDMDL
MODEL 4
REMARK VINA RESULT:      -6.7      7.460     11.481
REMARK  7 active torsions:
REMARK  status: ('A' for Active; 'I' for Inactive)
REMARK    1  A    between atoms: O1_2  and  C2_3 
REMARK    2  A    between atoms: C4_5  and  N1_6 
REMARK    3  A    between atoms: N1_6  and  C5_7 
REMARK       I    between atoms: N1_6  and  C12_15 
REMARK    4  A    between atoms: C5_7  and  C6_8 
REMARK    5  A    between atoms: C12_15  and  C13_17 
REMARK    6  A    between atoms: C13_17  and  N2_18 
REMARK    7  A    between atoms: C22_29  and  C23_30 
ROOT
ATOM      1  N1  UNK     1       0.906   1.422 -18.681  1.00  0.00    -0.312 N 
ATOM      2  C12 UNK     1       0.627   0.411 -19.601  1.00  0.00     0.244 C 
ATOM      3  O2  UNK     1      -0.438  -0.213 -19.610  1.00  0.00    -0.271 OA
ENDROOT
BRANCH   1   4
ATOM      4  C4  UNK     1      -0.198   1.998 -17.967  1.00  0.00     0.040 A 
ATOM      5  C3  UNK     1      -1.062   2.875 -18.630  1.00  0.00     0.067 A 
ATOM      6  C2  UNK     1      -2.209   3.386 -17.991  1.00  0.00     0.081 A 
ATOM      7  C22 UNK     1      -2.504   2.999 -16.672  1.00  0.00     0.011 A 
ATOM      8  C21 UNK     1      -1.585   2.179 -15.987  1.00  0.00     0.017 A 
ATOM      9  C20 UNK     1      -0.441   1.681 -16.633  1.00  0.00     0.031 A 
BRANCH   6  10
ATOM     10  O1  UNK     1      -3.028   4.303 -18.589  1.00  0.00    -0.355 OA
ATOM     11  C1  UNK     1      -3.794   3.894 -19.709  1.00  0.00     0.210 C 
ENDBRANCH   6  10
BRANCH   7  12
ATOM     12  C23 UNK     1      -3.799   3.358 -15.977  1.00  0.00     0.015 A 
ATOM     13  C24 UNK     1      -4.132   4.421 -15.164  1.00  0.00     0.154 A 
ATOM     14  N5  UNK     1      -5.424   4.429 -14.786  1.00  0.00    -0.162 NA
ATOM     15  N6  UNK     1      -5.995   3.350 -15.347  1.00  0.00    -0.162 NA
ATOM     16  C25 UNK     1      -5.026   2.725 -16.037  1.00  0.00     0.154 A 
ENDBRANCH   7  12
ENDBRANCH   1   4
BRANCH   1  17
ATOM     17  C5  UNK     1       2.165   2.185 -18.703  1.00  0.00     0.170 C 
BRANCH  17  18
ATOM     18  C6  UNK     1       3.046   1.972 -17.503  1.00  0.00    -0.038 A 
ATOM     19  C7  UNK     1       3.191   0.698 -16.942  1.00  0.00     0.009 A 
ATOM     20  C8  UNK     1       4.075   0.489 -15.886  1.00  0.00     0.002 A 
ATOM     21  C9  UNK     1       4.819   1.557 -15.376  1.00  0.00     0.024 A 
ATOM     22  C10 UNK     1       4.657   2.830 -15.911  1.00  0.00     0.034 A 
ATOM     23 Cl1  UNK     1       5.574   4.147 -15.280  1.00  0.00    -0.084 Cl
ATOM     24  C11 UNK     1       3.773   3.049 -16.961  1.00  0.00     0.032 A 
ENDBRANCH  17  18
ENDBRANCH   1  17
BRANCH   2  25
ATOM     25  C13 UNK     1       1.655   0.115 -20.666  1.00  0.00     0.250 C 
BRANCH  25  26
ATOM     26  N2  UNK     1       1.861  -1.292 -20.964  1.00  0.00    -0.263 N 
ATOM     27  N3  UNK     1       0.948  -1.883 -21.772  1.00  0.00     0.006 NA
ATOM     28  N4  UNK     1       0.714  -3.096 -21.288  1.00  0.00    -0.158 NA
ATOM     29  C14 UNK     1       1.581  -3.310 -20.252  1.00  0.00     0.102 A 
ATOM     30  C15 UNK     1       1.687  -4.381 -19.352  1.00  0.00     0.035 A 
ATOM     31  C19 UNK     1       2.438  -2.222 -20.127  1.00  0.00     0.079 A 
ATOM     32  C16 UNK     1       2.713  -4.350 -18.401  1.00  0.00     0.002 A 
ATOM     33  C17 UNK     1       3.629  -3.295 -18.369  1.00  0.00     0.002 A 
ATOM     34  C18 UNK     1       3.505  -2.195 -19.226  1.00  0.00     0.033 A 
ENDBRANCH  25  26
ENDBRANCH   2  25
TORSDOF 7
ENDMDL
MODEL 5
REMARK VINA RESULT:      -6.6     16.596     19.650
REMARK  7 active torsions:
REMARK  status: ('A' for Active; 'I' for Inactive)
REMARK    1  A    between atoms: O1_2  and  C2_3 
REMARK    2  A    between atoms: C4_5  and  N1_6 
REMARK    3  A    between atoms: N1_6  and  C5_7 
REMARK       I    between atoms: N1_6  and  C12_15 
REMARK    4  A    between atoms: C5_7  and  C6_8 
REMARK    5  A    between atoms: C12_15  and  C13_17 
REMARK    6  A    between atoms: C13_17  and  N2_18 
REMARK    7  A    between atoms: C22_29  and  C23_30 
ROOT
ATOM      1  N1  UNK     1      19.513  10.980  -5.198  1.00  0.00    -0.312 N 
ATOM      2  C12 UNK     1      20.796  10.468  -5.395  1.00  0.00     0.244 C 
ATOM      3  O2  UNK     1      21.807  10.983  -4.909  1.00  0.00    -0.271 OA
ENDROOT
BRANCH   1   4
ATOM      4  C4  UNK     1      19.323  11.904  -4.116  1.00  0.00     0.040 A 
ATOM      5  C3  UNK     1      18.690  11.472  -2.947  1.00  0.00     0.067 A 
ATOM      6  C2  UNK     1      18.568  12.322  -1.830  1.00  0.00     0.081 A 
ATOM      7  C22 UNK     1      19.106  13.621  -1.879  1.00  0.00     0.011 A 
ATOM      8  C21 UNK     1      19.670  14.072  -3.089  1.00  0.00     0.017 A 
ATOM      9  C20 UNK     1      19.779  13.217  -4.199  1.00  0.00     0.031 A 
BRANCH   6  10
ATOM     10  O1  UNK     1      17.889  11.952  -0.703  1.00  0.00    -0.355 OA
ATOM     11  C1  UNK     1      16.484  11.789  -0.784  1.00  0.00     0.210 C 
ENDBRANCH   6  10
BRANCH   7  12
ATOM     12  C23 UNK     1      19.176  14.531  -0.673  1.00  0.00     0.015 A 
ATOM     13  C24 UNK     1      20.183  14.754   0.243  1.00  0.00     0.154 A 
ATOM     14  N5  UNK     1      19.887  15.704   1.151  1.00  0.00    -0.162 NA
ATOM     15  N6  UNK     1      18.652  16.144   0.858  1.00  0.00    -0.162 NA
ATOM     16  C25 UNK     1      18.243  15.439  -0.211  1.00  0.00     0.154 A 
ENDBRANCH   7  12
ENDBRANCH   1   4
BRANCH   1  17
ATOM     17  C5  UNK     1      18.311  10.335  -5.752  1.00  0.00     0.170 C 
BRANCH  17  18
ATOM     18  C6  UNK     1      17.267  11.291  -6.261  1.00  0.00    -0.038 A 
ATOM     19  C7  UNK     1      17.582  12.230  -7.250  1.00  0.00     0.009 A 
ATOM     20  C8  UNK     1      16.592  13.053  -7.781  1.00  0.00     0.002 A 
ATOM     21  C9  UNK     1      15.276  12.949  -7.321  1.00  0.00     0.024 A 
ATOM     22  C10 UNK     1      14.964  12.037  -6.318  1.00  0.00     0.034 A 
ATOM     23 Cl1  UNK     1      13.341  11.911  -5.751  1.00  0.00    -0.084 Cl
ATOM     24  C11 UNK     1      15.947  11.216  -5.779  1.00  0.00     0.032 A 
ENDBRANCH  17  18
ENDBRANCH   1  17
BRANCH   2  25
ATOM     25  C13 UNK     1      20.939   9.192  -6.190  1.00  0.00     0.250 C 
BRANCH  25  26
ATOM     26  N2  UNK     1      21.486   8.060  -5.465  1.00  0.00    -0.263 N 
ATOM     27  N3  UNK     1      21.021   7.860  -4.208  1.00  0.00     0.006 NA
ATOM     28  N4  UNK     1      22.053   7.506  -3.453  1.00  0.00    -0.158 NA
ATOM     29  C14 UNK     1      23.140   7.357  -4.269  1.00  0.00     0.102 A 
ATOM     30  C15 UNK     1      24.483   7.088  -3.968  1.00  0.00     0.035 A 
ATOM     31  C19 UNK     1      22.761   7.554  -5.593  1.00  0.00     0.079 A 
ATOM     32  C16 UNK     1      25.387   6.947  -5.027  1.00  0.00     0.002 A 
ATOM     33  C17 UNK     1      24.956   7.042  -6.353  1.00  0.00     0.002 A 
ATOM     34  C18 UNK     1      23.630   7.361  -6.669  1.00  0.00     0.033 A 
ENDBRANCH  25  26
ENDBRANCH   2  25
TORSDOF 7
ENDMDL
MODEL 6
REMARK VINA RESULT:      -6.5     27.999     29.530
REMARK  7 active torsions:
REMARK  status: ('A' for Active; 'I' for Inactive)
REMARK    1  A    between atoms: O1_2  and  C2_3 
REMARK    2  A    between atoms: C4_5  and  N1_6 
REMARK    3  A    between atoms: N1_6  and  C5_7 
REMARK       I    between atoms: N1_6  and  C12_15 
REMARK    4  A    between atoms: C5_7  and  C6_8 
REMARK    5  A    between atoms: C12_15  and  C13_17 
REMARK    6  A    between atoms: C13_17  and  N2_18 
REMARK    7  A    between atoms: C22_29  and  C23_30 
ROOT
ATOM      1  N1  UNK     1      17.195   3.323  11.892  1.00  0.00    -0.312 N 
ATOM      2  C12 UNK     1      16.446   3.766  12.983  1.00  0.00     0.244 C 
ATOM      3  O2  UNK     1      15.220   3.644  13.050  1.00  0.00    -0.271 OA
ENDROOT
BRANCH   1   4
ATOM      4  C4  UNK     1      16.578   2.385  10.997  1.00  0.00     0.040 A 
ATOM      5  C3  UNK     1      16.706   1.015  11.244  1.00  0.00     0.067 A 
ATOM      6  C2  UNK     1      16.038   0.067  10.442  1.00  0.00     0.081 A 
ATOM      7  C22 UNK     1      15.215   0.501   9.388  1.00  0.00     0.011 A 
ATOM      8  C21 UNK     1      15.158   1.879   9.099  1.00  0.00     0.017 A 
ATOM      9  C20 UNK     1      15.834   2.814   9.901  1.00  0.00     0.031 A 
BRANCH   6  10
ATOM     10  O1  UNK     1      16.205  -1.279  10.614  1.00  0.00    -0.355 OA
ATOM     11  C1  UNK     1      17.347  -1.896  10.045  1.00  0.00     0.210 C 
ENDBRANCH   6  10
BRANCH   7  12
ATOM     12  C23 UNK     1      14.328  -0.435   8.595  1.00  0.00     0.015 A 
ATOM     13  C24 UNK     1      14.589  -1.222   7.494  1.00  0.00     0.154 A 
ATOM     14  N5  UNK     1      13.544  -1.978   7.110  1.00  0.00    -0.162 NA
ATOM     15  N6  UNK     1      12.540  -1.707   7.961  1.00  0.00    -0.162 NA
ATOM     16  C25 UNK     1      13.013  -0.791   8.823  1.00  0.00     0.154 A 
ENDBRANCH   7  12
ENDBRANCH   1   4
BRANCH   1  17
ATOM     17  C5  UNK     1      18.661   3.440  11.840  1.00  0.00     0.170 C 
BRANCH  17  18
ATOM     18  C6  UNK     1      19.190   4.139  10.618  1.00  0.00    -0.038 A 
ATOM     19  C7  UNK     1      18.597   5.321  10.160  1.00  0.00     0.009 A 
ATOM     20  C8  UNK     1      19.144   6.012   9.081  1.00  0.00     0.002 A 
ATOM     21  C9  UNK     1      20.287   5.521   8.443  1.00  0.00     0.024 A 
ATOM     22  C10 UNK     1      20.862   4.331   8.876  1.00  0.00     0.034 A 
ATOM     23 Cl1  UNK     1      22.270   3.725   8.087  1.00  0.00    -0.084 Cl
ATOM     24  C11 UNK     1      20.319   3.632   9.949  1.00  0.00     0.032 A 
ENDBRANCH  17  18
ENDBRANCH   1  17
BRANCH   2  25
ATOM     25  C13 UNK     1      17.184   4.364  14.156  1.00  0.00     0.250 C 
BRANCH  25  26
ATOM     26  N2  UNK     1      17.453   5.788  14.067  1.00  0.00    -0.263 N 
ATOM     27  N3  UNK     1      16.617   6.518  13.289  1.00  0.00     0.006 NA
ATOM     28  N4  UNK     1      17.355   7.400  12.628  1.00  0.00    -0.158 NA
ATOM     29  C14 UNK     1      18.638   7.307  13.094  1.00  0.00     0.102 A 
ATOM     30  C15 UNK     1      19.815   7.943  12.672  1.00  0.00     0.035 A 
ATOM     31  C19 UNK     1      18.692   6.386  14.134  1.00  0.00     0.079 A 
ATOM     32  C16 UNK     1      20.999   7.683  13.372  1.00  0.00     0.002 A 
ATOM     33  C17 UNK     1      21.002   6.836  14.483  1.00  0.00     0.002 A 
ATOM     34  C18 UNK     1      19.847   6.155  14.885  1.00  0.00     0.033 A 
ENDBRANCH  25  26
ENDBRANCH   2  25
TORSDOF 7
ENDMDL
MODEL 7
REMARK VINA RESULT:      -6.4     28.090     29.690
REMARK  7 active torsions:
REMARK  status: ('A' for Active; 'I' for Inactive)
REMARK    1  A    between atoms: O1_2  and  C2_3 
REMARK    2  A    between atoms: C4_5  and  N1_6 
REMARK    3  A    between atoms: N1_6  and  C5_7 
REMARK       I    between atoms: N1_6  and  C12_15 
REMARK    4  A    between atoms: C5_7  and  C6_8 
REMARK    5  A    between atoms: C12_15  and  C13_17 
REMARK    6  A    between atoms: C13_17  and  N2_18 
REMARK    7  A    between atoms: C22_29  and  C23_30 
ROOT
ATOM      1  N1  UNK     1      17.166   3.788  11.565  1.00  0.00    -0.312 N 
ATOM      2  C12 UNK     1      16.370   4.646  12.325  1.00  0.00     0.244 C 
ATOM      3  O2  UNK     1      15.144   4.715  12.197  1.00  0.00    -0.271 OA
ENDROOT
BRANCH   1   4
ATOM      4  C4  UNK     1      16.515   2.707  10.880  1.00  0.00     0.040 A 
ATOM      5  C3  UNK     1      16.171   1.553  11.590  1.00  0.00     0.067 A 
ATOM      6  C2  UNK     1      15.450   0.510  10.975  1.00  0.00     0.081 A 
ATOM      7  C22 UNK     1      15.050   0.634   9.633  1.00  0.00     0.011 A 
ATOM      8  C21 UNK     1      15.472   1.765   8.905  1.00  0.00     0.017 A 
ATOM      9  C20 UNK     1      16.197   2.795   9.527  1.00  0.00     0.031 A 
BRANCH   6  10
ATOM     10  O1  UNK     1      15.166  -0.660  11.624  1.00  0.00    -0.355 OA
ATOM     11  C1  UNK     1      14.431  -0.601  12.834  1.00  0.00     0.210 C 
ENDBRANCH   6  10
BRANCH   7  12
ATOM     12  C23 UNK     1      14.127  -0.352   8.952  1.00  0.00     0.015 A 
ATOM     13  C24 UNK     1      12.823  -0.713   9.218  1.00  0.00     0.154 A 
ATOM     14  N5  UNK     1      12.313  -1.590   8.334  1.00  0.00    -0.162 NA
ATOM     15  N6  UNK     1      13.284  -1.843   7.440  1.00  0.00    -0.162 NA
ATOM     16  C25 UNK     1      14.348  -1.115   7.821  1.00  0.00     0.154 A 
ENDBRANCH   7  12
ENDBRANCH   1   4
BRANCH   1  17
ATOM     17  C5  UNK     1      18.622   3.688  11.752  1.00  0.00     0.170 C 
BRANCH  17  18
ATOM     18  C6  UNK     1      19.438   4.279  10.636  1.00  0.00    -0.038 A 
ATOM     19  C7  UNK     1      20.387   3.504   9.959  1.00  0.00     0.009 A 
ATOM     20  C8  UNK     1      21.079   4.029   8.870  1.00  0.00     0.002 A 
ATOM     21  C9  UNK     1      20.831   5.339   8.451  1.00  0.00     0.024 A 
ATOM     22  C10 UNK     1      19.910   6.122   9.137  1.00  0.00     0.034 A 
ATOM     23 Cl1  UNK     1      19.607   7.739   8.621  1.00  0.00    -0.084 Cl
ATOM     24  C11 UNK     1      19.220   5.609  10.230  1.00  0.00     0.032 A 
ENDBRANCH  17  18
ENDBRANCH   1  17
BRANCH   2  25
ATOM     25  C13 UNK     1      17.040   5.479  13.392  1.00  0.00     0.250 C 
BRANCH  25  26
ATOM     26  N2  UNK     1      16.453   5.390  14.717  1.00  0.00    -0.263 N 
ATOM     27  N3  UNK     1      16.188   4.145  15.183  1.00  0.00     0.006 NA
ATOM     28  N4  UNK     1      15.020   4.195  15.811  1.00  0.00    -0.158 NA
ATOM     29  C14 UNK     1      14.620   5.502  15.851  1.00  0.00     0.102 A 
ATOM     30  C15 UNK     1      13.430   6.082  16.313  1.00  0.00     0.035 A 
ATOM     31  C19 UNK     1      15.604   6.310  15.292  1.00  0.00     0.079 A 
ATOM     32  C16 UNK     1      13.308   7.476  16.266  1.00  0.00     0.002 A 
ATOM     33  C17 UNK     1      14.358   8.272  15.801  1.00  0.00     0.002 A 
ATOM     34  C18 UNK     1      15.531   7.705  15.288  1.00  0.00     0.033 A 
ENDBRANCH  25  26
ENDBRANCH   2  25
TORSDOF 7
ENDMDL
MODEL 8
REMARK VINA RESULT:      -6.3     15.898     20.013
REMARK  7 active torsions:
REMARK  status: ('A' for Active; 'I' for Inactive)
REMARK    1  A    between atoms: O1_2  and  C2_3 
REMARK    2  A    between atoms: C4_5  and  N1_6 
REMARK    3  A    between atoms: N1_6  and  C5_7 
REMARK       I    between atoms: N1_6  and  C12_15 
REMARK    4  A    between atoms: C5_7  and  C6_8 
REMARK    5  A    between atoms: C12_15  and  C13_17 
REMARK    6  A    between atoms: C13_17  and  N2_18 
REMARK    7  A    between atoms: C22_29  and  C23_30 
ROOT
ATOM      1  N1  UNK     1      16.278  15.027  -3.738  1.00  0.00    -0.312 N 
ATOM      2  C12 UNK     1      15.318  14.146  -3.236  1.00  0.00     0.244 C 
ATOM      3  O2  UNK     1      15.080  14.030  -2.031  1.00  0.00    -0.271 OA
ENDROOT
BRANCH   1   4
ATOM      4  C4  UNK     1      16.737  16.076  -2.874  1.00  0.00     0.040 A 
ATOM      5  C3  UNK     1      17.809  15.833  -2.009  1.00  0.00     0.067 A 
ATOM      6  C2  UNK     1      18.347  16.864  -1.213  1.00  0.00     0.081 A 
ATOM      7  C22 UNK     1      17.815  18.163  -1.299  1.00  0.00     0.011 A 
ATOM      8  C21 UNK     1      16.685  18.377  -2.112  1.00  0.00     0.017 A 
ATOM      9  C20 UNK     1      16.152  17.339  -2.896  1.00  0.00     0.031 A 
BRANCH   6  10
ATOM     10  O1  UNK     1      19.345  16.637  -0.305  1.00  0.00    -0.355 OA
ATOM     11  C1  UNK     1      19.000  16.083   0.952  1.00  0.00     0.210 C 
ENDBRANCH   6  10
BRANCH   7  12
ATOM     12  C23 UNK     1      18.443  19.358  -0.616  1.00  0.00     0.015 A 
ATOM     13  C24 UNK     1      19.501  20.164  -0.982  1.00  0.00     0.154 A 
ATOM     14  N5  UNK     1      19.722  21.185  -0.132  1.00  0.00    -0.162 NA
ATOM     15  N6  UNK     1      18.801  21.081   0.841  1.00  0.00    -0.162 NA
ATOM     16  C25 UNK     1      18.062  19.997   0.548  1.00  0.00     0.154 A 
ENDBRANCH   7  12
ENDBRANCH   1   4
BRANCH   1  17
ATOM     17  C5  UNK     1      16.528  15.184  -5.180  1.00  0.00     0.170 C 
BRANCH  17  18
ATOM     18  C6  UNK     1      17.868  14.683  -5.641  1.00  0.00    -0.038 A 
ATOM     19  C7  UNK     1      18.694  13.956  -4.776  1.00  0.00     0.009 A 
ATOM     20  C8  UNK     1      19.895  13.419  -5.232  1.00  0.00     0.002 A 
ATOM     21  C9  UNK     1      20.286  13.611  -6.560  1.00  0.00     0.024 A 
ATOM     22  C10 UNK     1      19.483  14.357  -7.416  1.00  0.00     0.034 A 
ATOM     23 Cl1  UNK     1      19.968  14.594  -9.054  1.00  0.00    -0.084 Cl
ATOM     24  C11 UNK     1      18.286  14.901  -6.967  1.00  0.00     0.032 A 
ENDBRANCH  17  18
ENDBRANCH   1  17
BRANCH   2  25
ATOM     25  C13 UNK     1      14.499  13.349  -4.222  1.00  0.00     0.250 C 
BRANCH  25  26
ATOM     26  N2  UNK     1      14.975  12.003  -4.489  1.00  0.00    -0.263 N 
ATOM     27  N3  UNK     1      15.209  11.216  -3.411  1.00  0.00     0.006 NA
ATOM     28  N4  UNK     1      16.321  10.532  -3.651  1.00  0.00    -0.158 NA
ATOM     29  C14 UNK     1      16.708  10.796  -4.936  1.00  0.00     0.102 A 
ATOM     30  C15 UNK     1      17.851  10.406  -5.648  1.00  0.00     0.035 A 
ATOM     31  C19 UNK     1      15.767  11.617  -5.548  1.00  0.00     0.079 A 
ATOM     32  C16 UNK     1      17.967  10.797  -6.987  1.00  0.00     0.002 A 
ATOM     33  C17 UNK     1      16.954  11.531  -7.609  1.00  0.00     0.002 A 
ATOM     34  C18 UNK     1      15.831  11.971  -6.898  1.00  0.00     0.033 A 
ENDBRANCH  25  26
ENDBRANCH   2  25
TORSDOF 7
ENDMDL
MODEL 9
REMARK VINA RESULT:      -6.1      3.704      8.645
REMARK  7 active torsions:
REMARK  status: ('A' for Active; 'I' for Inactive)
REMARK    1  A    between atoms: O1_2  and  C2_3 
REMARK    2  A    between atoms: C4_5  and  N1_6 
REMARK    3  A    between atoms: N1_6  and  C5_7 
REMARK       I    between atoms: N1_6  and  C12_15 
REMARK    4  A    between atoms: C5_7  and  C6_8 
REMARK    5  A    between atoms: C12_15  and  C13_17 
REMARK    6  A    between atoms: C13_17  and  N2_18 
REMARK    7  A    between atoms: C22_29  and  C23_30 
ROOT
ATOM      1  N1  UNK     1       6.459   5.568 -16.221  1.00  0.00    -0.312 N 
ATOM      2  C12 UNK     1       7.217   5.554 -17.393  1.00  0.00     0.244 C 
ATOM      3  O2  UNK     1       7.006   6.319 -18.339  1.00  0.00    -0.271 OA
ENDROOT
BRANCH   1   4
ATOM      4  C4  UNK     1       5.658   6.730 -15.960  1.00  0.00     0.040 A 
ATOM      5  C3  UNK     1       6.253   7.862 -15.396  1.00  0.00     0.067 A 
ATOM      6  C2  UNK     1       5.520   9.052 -15.211  1.00  0.00     0.081 A 
ATOM      7  C22 UNK     1       4.174   9.113 -15.615  1.00  0.00     0.011 A 
ATOM      8  C21 UNK     1       3.564   7.943 -16.108  1.00  0.00     0.017 A 
ATOM      9  C20 UNK     1       4.303   6.760 -16.281  1.00  0.00     0.031 A 
BRANCH   6  10
ATOM     10  O1  UNK     1       6.055  10.148 -14.593  1.00  0.00    -0.355 OA
ATOM     11  C1  UNK     1       7.405  10.483 -14.863  1.00  0.00     0.210 C 
ENDBRANCH   6  10
BRANCH   7  12
ATOM     12  C23 UNK     1       3.371  10.395 -15.616  1.00  0.00     0.015 A 
ATOM     13  C24 UNK     1       3.373  11.470 -16.479  1.00  0.00     0.154 A 
ATOM     14  N5  UNK     1       2.452  12.406 -16.179  1.00  0.00    -0.162 NA
ATOM     15  N6  UNK     1       1.804  11.970 -15.086  1.00  0.00    -0.162 NA
ATOM     16  C25 UNK     1       2.361  10.791 -14.761  1.00  0.00     0.154 A 
ENDBRANCH   7  12
ENDBRANCH   1   4
BRANCH   1  17
ATOM     17  C5  UNK     1       6.744   4.677 -15.085  1.00  0.00     0.170 C 
BRANCH  17  18
ATOM     18  C6  UNK     1       5.956   3.396 -15.082  1.00  0.00    -0.038 A 
ATOM     19  C7  UNK     1       4.794   3.273 -15.851  1.00  0.00     0.009 A 
ATOM     20  C8  UNK     1       4.115   2.058 -15.915  1.00  0.00     0.002 A 
ATOM     21  C9  UNK     1       4.591   0.954 -15.200  1.00  0.00     0.024 A 
ATOM     22  C10 UNK     1       5.730   1.080 -14.412  1.00  0.00     0.034 A 
ATOM     23 Cl1  UNK     1       6.315  -0.282 -13.531  1.00  0.00    -0.084 Cl
ATOM     24  C11 UNK     1       6.410   2.291 -14.339  1.00  0.00     0.032 A 
ENDBRANCH  17  18
ENDBRANCH   1  17
BRANCH   2  25
ATOM     25  C13 UNK     1       8.383   4.599 -17.474  1.00  0.00     0.250 C 
BRANCH  25  26
ATOM     26  N2  UNK     1       8.136   3.369 -18.207  1.00  0.00    -0.263 N 
ATOM     27  N3  UNK     1       7.069   3.363 -19.042  1.00  0.00     0.006 NA
ATOM     28  N4  UNK     1       6.479   2.180 -18.925  1.00  0.00    -0.158 NA
ATOM     29  C14 UNK     1       7.257   1.401 -18.114  1.00  0.00     0.102 A 
ATOM     30  C15 UNK     1       7.043   0.113 -17.601  1.00  0.00     0.035 A 
ATOM     31  C19 UNK     1       8.411   2.093 -17.767  1.00  0.00     0.079 A 
ATOM     32  C16 UNK     1       8.046  -0.464 -16.814  1.00  0.00     0.002 A 
ATOM     33  C17 UNK     1       9.245   0.212 -16.572  1.00  0.00     0.002 A 
ATOM     34  C18 UNK     1       9.452   1.517 -17.034  1.00  0.00     0.033 A 
ENDBRANCH  25  26
ENDBRANCH   2  25
TORSDOF 7
ENDMDL
MODEL 10
REMARK VINA RESULT:      -6.0      4.120     10.073
REMARK  7 active torsions:
REMARK  status: ('A' for Active; 'I' for Inactive)
REMARK    1  A    between atoms: O1_2  and  C2_3 
REMARK    2  A    between atoms: C4_5  and  N1_6 
REMARK    3  A    between atoms: N1_6  and  C5_7 
REMARK       I    between atoms: N1_6  and  C12_15 
REMARK    4  A    between atoms: C5_7  and  C6_8 
REMARK    5  A    between atoms: C12_15  and  C13_17 
REMARK    6  A    between atoms: C13_17  and  N2_18 
REMARK    7  A    between atoms: C22_29  and  C23_30 
ROOT
ATOM      1  N1  UNK     1       5.100   1.027 -17.256  1.00  0.00    -0.312 N 
ATOM      2  C12 UNK     1       6.170   0.400 -17.896  1.00  0.00     0.244 C 
ATOM      3  O2  UNK     1       7.066   1.023 -18.473  1.00  0.00    -0.271 OA
ENDROOT
BRANCH   1   4
ATOM      4  C4  UNK     1       5.232   2.422 -16.949  1.00  0.00     0.040 A 
ATOM      5  C3  UNK     1       4.953   3.373 -17.935  1.00  0.00     0.067 A 
ATOM      6  C2  UNK     1       4.981   4.751 -17.645  1.00  0.00     0.081 A 
ATOM      7  C22 UNK     1       5.276   5.184 -16.340  1.00  0.00     0.011 A 
ATOM      8  C21 UNK     1       5.635   4.222 -15.375  1.00  0.00     0.017 A 
ATOM      9  C20 UNK     1       5.610   2.850 -15.678  1.00  0.00     0.031 A 
BRANCH   6  10
ATOM     10  O1  UNK     1       4.786   5.702 -18.607  1.00  0.00    -0.355 OA
ATOM     11  C1  UNK     1       5.851   5.992 -19.496  1.00  0.00     0.210 C 
ENDBRANCH   6  10
BRANCH   7  12
ATOM     12  C23 UNK     1       5.155   6.627 -15.902  1.00  0.00     0.015 A 
ATOM     13  C24 UNK     1       4.077   7.487 -15.885  1.00  0.00     0.154 A 
ATOM     14  N5  UNK     1       4.355   8.692 -15.353  1.00  0.00    -0.162 NA
ATOM     15  N6  UNK     1       5.650   8.666 -14.998  1.00  0.00    -0.162 NA
ATOM     16  C25 UNK     1       6.111   7.449 -15.334  1.00  0.00     0.154 A 
ENDBRANCH   7  12
ENDBRANCH   1   4
BRANCH   1  17
ATOM     17  C5  UNK     1       4.058   0.274 -16.539  1.00  0.00     0.170 C 
BRANCH  17  18
ATOM     18  C6  UNK     1       2.650   0.636 -16.922  1.00  0.00    -0.038 A 
ATOM     19  C7  UNK     1       1.812   1.298 -16.018  1.00  0.00     0.009 A 
ATOM     20  C8  UNK     1       0.539   1.708 -16.406  1.00  0.00     0.002 A 
ATOM     21  C9  UNK     1       0.088   1.453 -17.704  1.00  0.00     0.024 A 
ATOM     22  C10 UNK     1       0.906   0.770 -18.598  1.00  0.00     0.034 A 
ATOM     23 Cl1  UNK     1       0.348   0.453 -20.199  1.00  0.00    -0.084 Cl
ATOM     24  C11 UNK     1       2.176   0.351 -18.217  1.00  0.00     0.032 A 
ENDBRANCH  17  18
ENDBRANCH   1  17
BRANCH   2  25
ATOM     25  C13 UNK     1       6.261  -1.105 -17.821  1.00  0.00     0.250 C 
BRANCH  25  26
ATOM     26  N2  UNK     1       5.762  -1.821 -18.982  1.00  0.00    -0.263 N 
ATOM     27  N3  UNK     1       6.047  -1.288 -20.195  1.00  0.00     0.006 NA
ATOM     28  N4  UNK     1       4.965  -1.420 -20.952  1.00  0.00    -0.158 NA
ATOM     29  C14 UNK     1       4.049  -2.156 -20.252  1.00  0.00     0.102 A 
ATOM     30  C15 UNK     1       2.723  -2.498 -20.556  1.00  0.00     0.035 A 
ATOM     31  C19 UNK     1       4.601  -2.561 -19.042  1.00  0.00     0.079 A 
ATOM     32  C16 UNK     1       2.023  -3.309 -19.655  1.00  0.00     0.002 A 
ATOM     33  C17 UNK     1       2.640  -3.793 -18.498  1.00  0.00     0.002 A 
ATOM     34  C18 UNK     1       3.944  -3.418 -18.156  1.00  0.00     0.033 A 
ENDBRANCH  25  26
ENDBRANCH   2  25
TORSDOF 7
ENDMDL
