@<TRIPOS>MOLECULE
Structure9
48   52    1
SMALL
USER_CHARGES


@<TRIPOS>ATOM
      1 O1         15.1560   14.6820   -3.2690 O.2       1 UNK         0.0000 
      2 C1         15.9530   13.7370   -3.2870 C.2       1 UNK         0.0000 
      3 N4         16.1830   13.0090   -4.4580 N.am      1 UNK         0.0000 
      4 C9         15.5010   13.4260   -5.6880 C.3       1 UNK         0.0000 
      5 C10        14.5040   12.3800   -6.1090 C.2       1 UNK         0.0000 
      6 C11        13.2780   12.1040   -5.4150 C.2       1 UNK         0.0000 
      7 C12        12.5430   11.1020   -6.0080 C.2       1 UNK         0.0000 
      8 S1         13.3270   10.4650   -7.3860 S.3       1 UNK         0.0000 
      9 C13        14.6510   11.5290   -7.1910 C.2       1 UNK         0.0000 
     10 C14        17.3310   12.1940   -4.6060 C.ar      1 UNK         0.0000 
     11 C15        18.4380   12.6780   -5.3050 C.ar      1 UNK         0.0000 
     12 C16        19.4990   11.8190   -5.6080 C.ar      1 UNK         0.0000 
     13 C17        19.4520   10.4800   -5.2110 C.ar      1 UNK         0.0000 
     14 C21        18.3690   10.0170   -4.4560 C.ar      1 UNK         0.0000 
     15 C22        17.3090   10.8720   -4.1500 C.ar      1 UNK         0.0000 
     16 C18        20.5170    9.5040   -5.6360 C.ar      1 UNK         0.0000 
     17 C19        20.4640    8.5890   -6.6780 C.ar      1 UNK         0.0000 
     18 N5         21.6080    7.8710   -6.6870 N.pl3     1 UNK         0.0000 
     19 C20        22.3620    8.3370   -5.6730 C.ar      1 UNK         0.0000 
     20 N6         21.7160    9.3260   -5.0230 N.2       1 UNK         0.0000 
     21 C2         16.7180   13.3740   -2.0210 C.3       1 UNK         0.0000 
     22 N1         17.6150   14.4320   -1.6030 N.pl3     1 UNK         0.0000 
     23 N2         18.7920   14.6100   -2.2430 N.2       1 UNK         0.0000 
     24 N3         19.4590   15.5650   -1.6100 N.2       1 UNK         0.0000 
     25 C3         18.7110   15.9670   -0.5400 C.ar      1 UNK         0.0000 
     26 C4         18.9820   16.9210    0.4520 C.ar      1 UNK         0.0000 
     27 C8         17.5190   15.2500   -0.5030 C.ar      1 UNK         0.0000 
     28 C5         18.0310   17.1310    1.4580 C.ar      1 UNK         0.0000 
     29 C6         16.8430   16.3980    1.4780 C.ar      1 UNK         0.0000 
     30 C7         16.5640   15.4320    0.5030 C.ar      1 UNK         0.0000 
     31 H91        16.2358   13.5670   -6.4806 H         1 UNK         0.0000 
     32 H92        14.9851   14.3704   -5.5147 H         1 UNK         0.0000 
     33 H11        13.0226   12.6629   -4.5269 H         1 UNK         0.0000 
     34 H12        11.5909   10.8107   -5.5896 H         1 UNK         0.0000 
     35 H13        15.5367   11.5859   -7.8063 H         1 UNK         0.0000 
     36 H15        18.4734   13.7133   -5.6103 H         1 UNK         0.0000 
     37 H16        20.3565   12.1901   -6.1496 H         1 UNK         0.0000 
     38 H21        18.3512    8.9948   -4.1078 H         1 UNK         0.0000 
     39 H22        16.4743   10.5168   -3.5639 H         1 UNK         0.0000 
     40 H19        19.5941    8.5477   -7.3167 H         1 UNK         0.0000 
     41 HN5        21.7453    7.1484   -7.3792 H         1 UNK         0.0000 
     42 H20        23.3371    7.9122   -5.4856 H         1 UNK         0.0000 
     43 H21        17.2887   12.4611   -2.1915 H         1 UNK         0.0000 
     44 H22        16.0113   13.1600   -1.2192 H         1 UNK         0.0000 
     45 H4         19.9085   17.4755    0.4292 H         1 UNK         0.0000 
     46 H5         18.2131   17.8658    2.2283 H         1 UNK         0.0000 
     47 H6         16.1152   16.5703    2.2571 H         1 UNK         0.0000 
     48 H7         15.6606   14.8402    0.5034 H         1 UNK         0.0000 
@<TRIPOS>BOND
     1    1    2 2    
     2    2    3 am   BACKBONE|DICT|INTERRES
     3    2   21 1    
     4    3    4 1    
     5    3   10 1    
     6    4    5 1    
     7    4   31 1    
     8    4   32 1    
     9    5    6 1    
    10    5    9 2    
    11    6    7 2    
    12    6   33 1    
    13    7    8 1    
    14    7   34 1    
    15    8    9 1    
    16    9   35 1    
    17   10   11 ar   
    18   10   15 ar   
    19   11   12 ar   
    20   11   36 1    
    21   12   13 ar   
    22   12   37 1    
    23   13   14 ar   
    24   13   16 1    
    25   14   15 ar   
    26   14   38 1    
    27   15   39 1    
    28   16   17 ar   
    29   16   20 ar   
    30   17   18 ar   
    31   17   40 1    
    32   18   19 ar   
    33   18   41 1    
    34   19   20 ar   
    35   19   42 1    
    36   21   22 1    
    37   21   43 1    
    38   21   44 1    
    39   22   23 ar   
    40   22   27 ar   
    41   23   24 ar   
    42   24   25 ar   
    43   25   26 ar   
    44   25   27 ar   
    45   26   28 ar   
    46   26   45 1    
    47   27   30 ar   
    48   28   29 ar   
    49   28   46 1    
    50   29   30 ar   
    51   29   47 1    
    52   30   48 1    
@<TRIPOS>SUBSTRUCTURE
     1 UNK         1 GROUP             0       ****    0 ROOT    
