MODEL 1
REMARK VINA RESULT:      -6.9      0.000      0.000
REMARK  6 active torsions:
REMARK  status: ('A' for Active; 'I' for Inactive)
REMARK    1  A    between atoms: C1_2  and  C2_3 
REMARK       I    between atoms: C1_2  and  N4_13 
REMARK    2  A    between atoms: C2_3  and  N1_4 
REMARK    3  A    between atoms: N4_13  and  C9_14 
REMARK    4  A    between atoms: N4_13  and  C14_20 
REMARK    5  A    between atoms: C9_14  and  C10_15 
REMARK    6  A    between atoms: C17_23  and  C18_24 
ROOT
ATOM      1  O1  UNK     1      15.083   3.597  11.102  1.00  0.00    -0.271 OA
ATOM      2  C1  UNK     1      16.313   3.482  11.048  1.00  0.00     0.244 C 
ATOM      3  N4  UNK     1      16.966   3.288   9.828  1.00  0.00    -0.312 N 
ENDROOT
BRANCH   3   4
ATOM      4  C9  UNK     1      16.167   3.282   8.598  1.00  0.00     0.171 C 
BRANCH   4   5
ATOM      5  C10 UNK     1      15.744   1.878   8.260  1.00  0.00    -0.033 A 
ATOM      6  C11 UNK     1      14.413   1.368   8.436  1.00  0.00     0.016 A 
ATOM      7  C12 UNK     1      14.289   0.052   8.047  1.00  0.00     0.050 A 
ATOM      8  S1  UNK     1      15.772  -0.591   7.492  1.00  0.00    -0.113 SA
ATOM      9  C13 UNK     1      16.581   0.889   7.771  1.00  0.00     0.058 A 
ENDBRANCH   4   5
ENDBRANCH   3   4
BRANCH   3  10
ATOM     10  C14 UNK     1      18.354   3.525   9.689  1.00  0.00     0.037 A 
ATOM     11  C15 UNK     1      18.801   4.744   9.176  1.00  0.00     0.030 A 
ATOM     12  C16 UNK     1      20.155   4.917   8.870  1.00  0.00     0.016 A 
ATOM     13  C17 UNK     1      21.059   3.872   9.078  1.00  0.00    -0.006 A 
ATOM     14  C21 UNK     1      20.617   2.675   9.651  1.00  0.00     0.016 A 
ATOM     15  C22 UNK     1      19.266   2.500   9.960  1.00  0.00     0.030 A 
BRANCH  13  16
ATOM     16  C18 UNK     1      22.493   3.985   8.637  1.00  0.00     0.086 A 
ATOM     17  C19 UNK     1      23.043   3.588   7.426  1.00  0.00     0.150 A 
ATOM     18  N5  UNK     1      24.373   3.820   7.454  1.00  0.00    -0.252 NA
ATOM     19  C20 UNK     1      24.645   4.359   8.658  1.00  0.00     0.233 A 
ATOM     20  N6  UNK     1      23.517   4.465   9.390  1.00  0.00    -0.240 NA
ENDBRANCH  13  16
ENDBRANCH   3  10
BRANCH   2  21
ATOM     21  C2  UNK     1      17.134   3.578  12.327  1.00  0.00     0.250 C 
BRANCH  21  22
ATOM     22  N1  UNK     1      17.449   4.950  12.671  1.00  0.00    -0.263 N 
ATOM     23  N2  UNK     1      16.457   5.855  12.814  1.00  0.00     0.006 NA
ATOM     24  N3  UNK     1      17.013   7.039  13.028  1.00  0.00    -0.158 NA
ATOM     25  C3  UNK     1      18.369   6.884  12.985  1.00  0.00     0.102 A 
ATOM     26  C4  UNK     1      19.397   7.829  13.121  1.00  0.00     0.035 A 
ATOM     27  C8  UNK     1      18.684   5.549  12.749  1.00  0.00     0.079 A 
ATOM     28  C5  UNK     1      20.724   7.395  13.020  1.00  0.00     0.002 A 
ATOM     29  C6  UNK     1      21.017   6.051  12.779  1.00  0.00     0.002 A 
ATOM     30  C7  UNK     1      20.003   5.098  12.628  1.00  0.00     0.033 A 
ENDBRANCH  21  22
ENDBRANCH   2  21
TORSDOF 6
ENDMDL
MODEL 2
REMARK VINA RESULT:      -6.5      1.588      2.226
REMARK  6 active torsions:
REMARK  status: ('A' for Active; 'I' for Inactive)
REMARK    1  A    between atoms: C1_2  and  C2_3 
REMARK       I    between atoms: C1_2  and  N4_13 
REMARK    2  A    between atoms: C2_3  and  N1_4 
REMARK    3  A    between atoms: N4_13  and  C9_14 
REMARK    4  A    between atoms: N4_13  and  C14_20 
REMARK    5  A    between atoms: C9_14  and  C10_15 
REMARK    6  A    between atoms: C17_23  and  C18_24 
ROOT
ATOM      1  O1  UNK     1      15.007   3.680  10.980  1.00  0.00    -0.271 OA
ATOM      2  C1  UNK     1      16.238   3.565  10.960  1.00  0.00     0.244 C 
ATOM      3  N4  UNK     1      16.918   3.277   9.774  1.00  0.00    -0.312 N 
ENDROOT
BRANCH   3   4
ATOM      4  C9  UNK     1      16.144   3.170   8.532  1.00  0.00     0.171 C 
BRANCH   4   5
ATOM      5  C10 UNK     1      15.777   1.734   8.271  1.00  0.00    -0.033 A 
ATOM      6  C11 UNK     1      16.686   0.745   7.762  1.00  0.00     0.016 A 
ATOM      7  C12 UNK     1      16.102  -0.493   7.616  1.00  0.00     0.050 A 
ATOM      8  S1  UNK     1      14.452  -0.477   8.061  1.00  0.00    -0.113 SA
ATOM      9  C13 UNK     1      14.518   1.187   8.451  1.00  0.00     0.058 A 
ENDBRANCH   4   5
ENDBRANCH   3   4
BRANCH   3  10
ATOM     10  C14 UNK     1      18.308   3.508   9.645  1.00  0.00     0.037 A 
ATOM     11  C15 UNK     1      18.765   4.741   9.175  1.00  0.00     0.030 A 
ATOM     12  C16 UNK     1      20.120   4.914   8.877  1.00  0.00     0.016 A 
ATOM     13  C17 UNK     1      21.016   3.855   9.050  1.00  0.00    -0.006 A 
ATOM     14  C21 UNK     1      20.564   2.642   9.580  1.00  0.00     0.016 A 
ATOM     15  C22 UNK     1      19.211   2.468   9.882  1.00  0.00     0.030 A 
BRANCH  13  16
ATOM     16  C18 UNK     1      22.452   3.972   8.615  1.00  0.00     0.086 A 
ATOM     17  C19 UNK     1      23.030   3.482   7.452  1.00  0.00     0.150 A 
ATOM     18  N5  UNK     1      24.352   3.757   7.472  1.00  0.00    -0.252 NA
ATOM     19  C20 UNK     1      24.591   4.414   8.624  1.00  0.00     0.233 A 
ATOM     20  N6  UNK     1      23.451   4.552   9.331  1.00  0.00    -0.240 NA
ENDBRANCH  13  16
ENDBRANCH   3  10
BRANCH   2  21
ATOM     21  C2  UNK     1      17.032   3.767  12.244  1.00  0.00     0.250 C 
BRANCH  21  22
ATOM     22  N1  UNK     1      16.923   5.122  12.747  1.00  0.00    -0.263 N 
ATOM     23  N2  UNK     1      17.559   6.130  12.111  1.00  0.00     0.006 NA
ATOM     24  N3  UNK     1      17.381   7.236  12.821  1.00  0.00    -0.158 NA
ATOM     25  C3  UNK     1      16.657   6.913  13.933  1.00  0.00     0.102 A 
ATOM     26  C4  UNK     1      16.233   7.711  15.006  1.00  0.00     0.035 A 
ATOM     27  C8  UNK     1      16.352   5.555  13.919  1.00  0.00     0.079 A 
ATOM     28  C5  UNK     1      15.502   7.113  16.039  1.00  0.00     0.002 A 
ATOM     29  C6  UNK     1      15.210   5.748  16.007  1.00  0.00     0.002 A 
ATOM     30  C7  UNK     1      15.638   4.935  14.950  1.00  0.00     0.033 A 
ENDBRANCH  21  22
ENDBRANCH   2  21
TORSDOF 6
ENDMDL
MODEL 3
REMARK VINA RESULT:      -6.1      3.230      6.575
REMARK  6 active torsions:
REMARK  status: ('A' for Active; 'I' for Inactive)
REMARK    1  A    between atoms: C1_2  and  C2_3 
REMARK       I    between atoms: C1_2  and  N4_13 
REMARK    2  A    between atoms: C2_3  and  N1_4 
REMARK    3  A    between atoms: N4_13  and  C9_14 
REMARK    4  A    between atoms: N4_13  and  C14_20 
REMARK    5  A    between atoms: C9_14  and  C10_15 
REMARK    6  A    between atoms: C17_23  and  C18_24 
ROOT
ATOM      1  O1  UNK     1      20.758   3.712  11.731  1.00  0.00    -0.271 OA
ATOM      2  C1  UNK     1      19.688   3.274  11.291  1.00  0.00     0.244 C 
ATOM      3  N4  UNK     1      19.409   3.295   9.922  1.00  0.00    -0.312 N 
ENDROOT
BRANCH   3   4
ATOM      4  C9  UNK     1      20.437   3.796   9.005  1.00  0.00     0.171 C 
BRANCH   4   5
ATOM      5  C10 UNK     1      20.370   5.297   8.918  1.00  0.00    -0.033 A 
ATOM      6  C11 UNK     1      19.239   6.030   8.423  1.00  0.00     0.016 A 
ATOM      7  C12 UNK     1      19.431   7.394   8.452  1.00  0.00     0.050 A 
ATOM      8  S1  UNK     1      20.978   7.807   9.049  1.00  0.00    -0.113 SA
ATOM      9  C13 UNK     1      21.392   6.163   9.269  1.00  0.00     0.058 A 
ENDBRANCH   4   5
ENDBRANCH   3   4
BRANCH   3  10
ATOM     10  C14 UNK     1      18.392   2.483   9.365  1.00  0.00     0.037 A 
ATOM     11  C15 UNK     1      17.247   3.077   8.832  1.00  0.00     0.030 A 
ATOM     12  C16 UNK     1      16.165   2.279   8.444  1.00  0.00     0.016 A 
ATOM     13  C17 UNK     1      16.232   0.890   8.589  1.00  0.00    -0.006 A 
ATOM     14  C21 UNK     1      17.406   0.297   9.065  1.00  0.00     0.016 A 
ATOM     15  C22 UNK     1      18.488   1.091   9.450  1.00  0.00     0.030 A 
BRANCH  13  16
ATOM     16  C18 UNK     1      15.037   0.020   8.304  1.00  0.00     0.086 A 
ATOM     17  C19 UNK     1      13.708   0.276   8.607  1.00  0.00     0.150 A 
ATOM     18  N5  UNK     1      12.962  -0.783   8.226  1.00  0.00    -0.252 NA
ATOM     19  C20 UNK     1      13.811  -1.679   7.687  1.00  0.00     0.233 A 
ATOM     20  N6  UNK     1      15.075  -1.210   7.727  1.00  0.00    -0.240 NA
ENDBRANCH  13  16
ENDBRANCH   3  10
BRANCH   2  21
ATOM     21  C2  UNK     1      18.668   2.677  12.252  1.00  0.00     0.250 C 
BRANCH  21  22
ATOM     22  N1  UNK     1      17.473   3.489  12.353  1.00  0.00    -0.263 N 
ATOM     23  N2  UNK     1      17.572   4.801  12.659  1.00  0.00     0.006 NA
ATOM     24  N3  UNK     1      16.344   5.284  12.787  1.00  0.00    -0.158 NA
ATOM     25  C3  UNK     1      15.463   4.258  12.593  1.00  0.00     0.102 A 
ATOM     26  C4  UNK     1      14.062   4.241  12.649  1.00  0.00     0.035 A 
ATOM     27  C8  UNK     1      16.160   3.085  12.319  1.00  0.00     0.079 A 
ATOM     28  C5  UNK     1      13.397   3.030  12.419  1.00  0.00     0.002 A 
ATOM     29  C6  UNK     1      14.115   1.863  12.149  1.00  0.00     0.002 A 
ATOM     30  C7  UNK     1      15.515   1.862  12.103  1.00  0.00     0.033 A 
ENDBRANCH  21  22
ENDBRANCH   2  21
TORSDOF 6
ENDMDL
MODEL 4
REMARK VINA RESULT:      -6.1      2.718      5.975
REMARK  6 active torsions:
REMARK  status: ('A' for Active; 'I' for Inactive)
REMARK    1  A    between atoms: C1_2  and  C2_3 
REMARK       I    between atoms: C1_2  and  N4_13 
REMARK    2  A    between atoms: C2_3  and  N1_4 
REMARK    3  A    between atoms: N4_13  and  C9_14 
REMARK    4  A    between atoms: N4_13  and  C14_20 
REMARK    5  A    between atoms: C9_14  and  C10_15 
REMARK    6  A    between atoms: C17_23  and  C18_24 
ROOT
ATOM      1  O1  UNK     1      20.865   6.160  12.064  1.00  0.00    -0.271 OA
ATOM      2  C1  UNK     1      19.900   5.769  11.397  1.00  0.00     0.244 C 
ATOM      3  N4  UNK     1      19.890   4.497  10.819  1.00  0.00    -0.312 N 
ENDROOT
BRANCH   3   4
ATOM      4  C9  UNK     1      21.027   3.605  11.068  1.00  0.00     0.171 C 
BRANCH   4   5
ATOM      5  C10 UNK     1      21.766   3.335   9.784  1.00  0.00    -0.033 A 
ATOM      6  C11 UNK     1      22.014   4.320   8.769  1.00  0.00     0.016 A 
ATOM      7  C12 UNK     1      22.713   3.817   7.695  1.00  0.00     0.050 A 
ATOM      8  S1  UNK     1      23.055   2.152   7.879  1.00  0.00    -0.113 SA
ATOM      9  C13 UNK     1      22.268   2.104   9.397  1.00  0.00     0.058 A 
ENDBRANCH   4   5
ENDBRANCH   3   4
BRANCH   3  10
ATOM     10  C14 UNK     1      18.685   3.894  10.385  1.00  0.00     0.037 A 
ATOM     11  C15 UNK     1      17.999   3.026  11.236  1.00  0.00     0.030 A 
ATOM     12  C16 UNK     1      16.911   2.292  10.753  1.00  0.00     0.016 A 
ATOM     13  C17 UNK     1      16.511   2.427   9.421  1.00  0.00    -0.006 A 
ATOM     14  C21 UNK     1      17.163   3.345   8.589  1.00  0.00     0.016 A 
ATOM     15  C22 UNK     1      18.247   4.082   9.070  1.00  0.00     0.030 A 
BRANCH  13  16
ATOM     16  C18 UNK     1      15.431   1.555   8.840  1.00  0.00     0.086 A 
ATOM     17  C19 UNK     1      14.059   1.757   8.889  1.00  0.00     0.150 A 
ATOM     18  N5  UNK     1      13.443   0.714   8.290  1.00  0.00    -0.252 NA
ATOM     19  C20 UNK     1      14.416  -0.117   7.870  1.00  0.00     0.233 A 
ATOM     20  N6  UNK     1      15.628   0.375   8.196  1.00  0.00    -0.240 NA
ENDBRANCH  13  16
ENDBRANCH   3  10
BRANCH   2  21
ATOM     21  C2  UNK     1      18.690   6.678  11.224  1.00  0.00     0.250 C 
BRANCH  21  22
ATOM     22  N1  UNK     1      18.188   7.167  12.492  1.00  0.00    -0.263 N 
ATOM     23  N2  UNK     1      18.706   8.290  13.035  1.00  0.00     0.006 NA
ATOM     24  N3  UNK     1      18.150   8.461  14.226  1.00  0.00    -0.158 NA
ATOM     25  C3  UNK     1      17.299   7.416  14.450  1.00  0.00     0.102 A 
ATOM     26  C4  UNK     1      16.499   7.117  15.563  1.00  0.00     0.035 A 
ATOM     27  C8  UNK     1      17.306   6.559  13.353  1.00  0.00     0.079 A 
ATOM     28  C5  UNK     1      15.718   5.956  15.535  1.00  0.00     0.002 A 
ATOM     29  C6  UNK     1      15.742   5.108  14.425  1.00  0.00     0.002 A 
ATOM     30  C7  UNK     1      16.546   5.385  13.312  1.00  0.00     0.033 A 
ENDBRANCH  21  22
ENDBRANCH   2  21
TORSDOF 6
ENDMDL
MODEL 5
REMARK VINA RESULT:      -6.1     28.031     30.869
REMARK  6 active torsions:
REMARK  status: ('A' for Active; 'I' for Inactive)
REMARK    1  A    between atoms: C1_2  and  C2_3 
REMARK       I    between atoms: C1_2  and  N4_13 
REMARK    2  A    between atoms: C2_3  and  N1_4 
REMARK    3  A    between atoms: N4_13  and  C9_14 
REMARK    4  A    between atoms: N4_13  and  C14_20 
REMARK    5  A    between atoms: C9_14  and  C10_15 
REMARK    6  A    between atoms: C17_23  and  C18_24 
ROOT
ATOM      1  O1  UNK     1       3.158   1.101 -16.864  1.00  0.00    -0.271 OA
ATOM      2  C1  UNK     1       4.338   0.891 -17.166  1.00  0.00     0.244 C 
ATOM      3  N4  UNK     1       5.383   1.445 -16.421  1.00  0.00    -0.312 N 
ENDROOT
BRANCH   3   4
ATOM      4  C9  UNK     1       5.052   2.237 -15.232  1.00  0.00     0.171 C 
BRANCH   4   5
ATOM      5  C10 UNK     1       5.465   3.671 -15.431  1.00  0.00    -0.033 A 
ATOM      6  C11 UNK     1       6.659   4.253 -14.887  1.00  0.00     0.016 A 
ATOM      7  C12 UNK     1       6.805   5.581 -15.220  1.00  0.00     0.050 A 
ATOM      8  S1  UNK     1       5.500   6.150 -16.164  1.00  0.00    -0.113 SA
ATOM      9  C13 UNK     1       4.738   4.620 -16.130  1.00  0.00     0.058 A 
ENDBRANCH   4   5
ENDBRANCH   3   4
BRANCH   3  10
ATOM     10  C14 UNK     1       6.700   0.934 -16.505  1.00  0.00     0.037 A 
ATOM     11  C15 UNK     1       7.193   0.118 -15.485  1.00  0.00     0.030 A 
ATOM     12  C16 UNK     1       8.545  -0.241 -15.473  1.00  0.00     0.016 A 
ATOM     13  C17 UNK     1       9.400   0.215 -16.480  1.00  0.00    -0.006 A 
ATOM     14  C21 UNK     1       8.887   0.980 -17.533  1.00  0.00     0.016 A 
ATOM     15  C22 UNK     1       7.538   1.338 -17.550  1.00  0.00     0.030 A 
BRANCH  13  16
ATOM     16  C18 UNK     1      10.881  -0.047 -16.420  1.00  0.00     0.086 A 
ATOM     17  C19 UNK     1      11.910   0.883 -16.459  1.00  0.00     0.150 A 
ATOM     18  N5  UNK     1      13.091   0.228 -16.432  1.00  0.00    -0.252 NA
ATOM     19  C20 UNK     1      12.801  -1.086 -16.369  1.00  0.00     0.233 A 
ATOM     20  N6  UNK     1      11.466  -1.272 -16.363  1.00  0.00    -0.240 NA
ENDBRANCH  13  16
ENDBRANCH   3  10
BRANCH   2  21
ATOM     21  C2  UNK     1       4.663  -0.007 -18.353  1.00  0.00     0.250 C 
BRANCH  21  22
ATOM     22  N1  UNK     1       4.283  -1.385 -18.116  1.00  0.00    -0.263 N 
ATOM     23  N2  UNK     1       5.017  -2.153 -17.281  1.00  0.00     0.006 NA
ATOM     24  N3  UNK     1       4.521  -3.382 -17.316  1.00  0.00    -0.158 NA
ATOM     25  C3  UNK     1       3.486  -3.396 -18.209  1.00  0.00     0.102 A 
ATOM     26  C4  UNK     1       2.660  -4.449 -18.626  1.00  0.00     0.035 A 
ATOM     27  C8  UNK     1       3.312  -2.124 -18.748  1.00  0.00     0.079 A 
ATOM     28  C5  UNK     1       1.668  -4.186 -19.579  1.00  0.00     0.002 A 
ATOM     29  C6  UNK     1       1.512  -2.904 -20.109  1.00  0.00     0.002 A 
ATOM     30  C7  UNK     1       2.338  -1.845 -19.713  1.00  0.00     0.033 A 
ENDBRANCH  21  22
ENDBRANCH   2  21
TORSDOF 6
ENDMDL
MODEL 6
REMARK VINA RESULT:      -5.9     15.705     16.697
REMARK  6 active torsions:
REMARK  status: ('A' for Active; 'I' for Inactive)
REMARK    1  A    between atoms: C1_2  and  C2_3 
REMARK       I    between atoms: C1_2  and  N4_13 
REMARK    2  A    between atoms: C2_3  and  N1_4 
REMARK    3  A    between atoms: N4_13  and  C9_14 
REMARK    4  A    between atoms: N4_13  and  C14_20 
REMARK    5  A    between atoms: C9_14  and  C10_15 
REMARK    6  A    between atoms: C17_23  and  C18_24 
ROOT
ATOM      1  O1  UNK     1      15.156  14.682  -3.269  1.00  0.00    -0.271 OA
ATOM      2  C1  UNK     1      15.953  13.737  -3.287  1.00  0.00     0.244 C 
ATOM      3  N4  UNK     1      16.183  13.009  -4.458  1.00  0.00    -0.312 N 
ENDROOT
BRANCH   3   4
ATOM      4  C9  UNK     1      15.501  13.426  -5.688  1.00  0.00     0.171 C 
BRANCH   4   5
ATOM      5  C10 UNK     1      14.504  12.380  -6.109  1.00  0.00    -0.033 A 
ATOM      6  C11 UNK     1      13.278  12.104  -5.415  1.00  0.00     0.016 A 
ATOM      7  C12 UNK     1      12.543  11.102  -6.008  1.00  0.00     0.050 A 
ATOM      8  S1  UNK     1      13.327  10.465  -7.386  1.00  0.00    -0.113 SA
ATOM      9  C13 UNK     1      14.651  11.529  -7.191  1.00  0.00     0.058 A 
ENDBRANCH   4   5
ENDBRANCH   3   4
BRANCH   3  10
ATOM     10  C14 UNK     1      17.331  12.194  -4.606  1.00  0.00     0.037 A 
ATOM     11  C15 UNK     1      18.438  12.678  -5.305  1.00  0.00     0.030 A 
ATOM     12  C16 UNK     1      19.499  11.819  -5.608  1.00  0.00     0.016 A 
ATOM     13  C17 UNK     1      19.452  10.480  -5.211  1.00  0.00    -0.006 A 
ATOM     14  C21 UNK     1      18.369  10.017  -4.456  1.00  0.00     0.016 A 
ATOM     15  C22 UNK     1      17.309  10.872  -4.150  1.00  0.00     0.030 A 
BRANCH  13  16
ATOM     16  C18 UNK     1      20.517   9.504  -5.636  1.00  0.00     0.086 A 
ATOM     17  C19 UNK     1      20.464   8.589  -6.678  1.00  0.00     0.150 A 
ATOM     18  N5  UNK     1      21.608   7.871  -6.687  1.00  0.00    -0.252 NA
ATOM     19  C20 UNK     1      22.362   8.337  -5.673  1.00  0.00     0.233 A 
ATOM     20  N6  UNK     1      21.716   9.326  -5.023  1.00  0.00    -0.240 NA
ENDBRANCH  13  16
ENDBRANCH   3  10
BRANCH   2  21
ATOM     21  C2  UNK     1      16.718  13.374  -2.021  1.00  0.00     0.250 C 
BRANCH  21  22
ATOM     22  N1  UNK     1      17.615  14.432  -1.603  1.00  0.00    -0.263 N 
ATOM     23  N2  UNK     1      18.792  14.610  -2.243  1.00  0.00     0.006 NA
ATOM     24  N3  UNK     1      19.459  15.565  -1.610  1.00  0.00    -0.158 NA
ATOM     25  C3  UNK     1      18.711  15.967  -0.540  1.00  0.00     0.102 A 
ATOM     26  C4  UNK     1      18.982  16.921   0.452  1.00  0.00     0.035 A 
ATOM     27  C8  UNK     1      17.519  15.250  -0.503  1.00  0.00     0.079 A 
ATOM     28  C5  UNK     1      18.031  17.131   1.458  1.00  0.00     0.002 A 
ATOM     29  C6  UNK     1      16.843  16.398   1.478  1.00  0.00     0.002 A 
ATOM     30  C7  UNK     1      16.564  15.432   0.503  1.00  0.00     0.033 A 
ENDBRANCH  21  22
ENDBRANCH   2  21
TORSDOF 6
ENDMDL
MODEL 7
REMARK VINA RESULT:      -5.9     15.420     16.449
REMARK  6 active torsions:
REMARK  status: ('A' for Active; 'I' for Inactive)
REMARK    1  A    between atoms: C1_2  and  C2_3 
REMARK       I    between atoms: C1_2  and  N4_13 
REMARK    2  A    between atoms: C2_3  and  N1_4 
REMARK    3  A    between atoms: N4_13  and  C9_14 
REMARK    4  A    between atoms: N4_13  and  C14_20 
REMARK    5  A    between atoms: C9_14  and  C10_15 
REMARK    6  A    between atoms: C17_23  and  C18_24 
ROOT
ATOM      1  O1  UNK     1      14.902  14.614  -2.147  1.00  0.00    -0.271 OA
ATOM      2  C1  UNK     1      15.694  13.686  -2.349  1.00  0.00     0.244 C 
ATOM      3  N4  UNK     1      15.861  13.146  -3.627  1.00  0.00    -0.312 N 
ENDROOT
BRANCH   3   4
ATOM      4  C9  UNK     1      15.120  13.743  -4.743  1.00  0.00     0.171 C 
BRANCH   4   5
ATOM      5  C10 UNK     1      14.531  12.664  -5.612  1.00  0.00    -0.033 A 
ATOM      6  C11 UNK     1      15.040  12.297  -6.904  1.00  0.00     0.016 A 
ATOM      7  C12 UNK     1      14.323  11.278  -7.490  1.00  0.00     0.050 A 
ATOM      8  S1  UNK     1      13.018  10.770  -6.511  1.00  0.00    -0.113 SA
ATOM      9  C13 UNK     1      13.411  11.912  -5.301  1.00  0.00     0.058 A 
ENDBRANCH   4   5
ENDBRANCH   3   4
BRANCH   3  10
ATOM     10  C14 UNK     1      16.997  12.368  -3.956  1.00  0.00     0.037 A 
ATOM     11  C15 UNK     1      18.096  12.971  -4.570  1.00  0.00     0.030 A 
ATOM     12  C16 UNK     1      19.142  12.181  -5.057  1.00  0.00     0.016 A 
ATOM     13  C17 UNK     1      19.088  10.791  -4.929  1.00  0.00    -0.006 A 
ATOM     14  C21 UNK     1      18.014  10.196  -4.257  1.00  0.00     0.016 A 
ATOM     15  C22 UNK     1      16.970  10.983  -3.767  1.00  0.00     0.030 A 
BRANCH  13  16
ATOM     16  C18 UNK     1      20.133   9.910  -5.559  1.00  0.00     0.086 A 
ATOM     17  C19 UNK     1      21.509   9.971  -5.391  1.00  0.00     0.150 A 
ATOM     18  N5  UNK     1      22.086   9.034  -6.174  1.00  0.00    -0.252 NA
ATOM     19  C20 UNK     1      21.086   8.395  -6.811  1.00  0.00     0.233 A 
ATOM     20  N6  UNK     1      19.894   8.914  -6.452  1.00  0.00    -0.240 NA
ENDBRANCH  13  16
ENDBRANCH   3  10
BRANCH   2  21
ATOM     21  C2  UNK     1      16.521  13.138  -1.193  1.00  0.00     0.250 C 
BRANCH  21  22
ATOM     22  N1  UNK     1      17.273  14.176  -0.519  1.00  0.00    -0.263 N 
ATOM     23  N2  UNK     1      16.631  15.091   0.238  1.00  0.00     0.006 NA
ATOM     24  N3  UNK     1      17.526  15.976   0.655  1.00  0.00    -0.158 NA
ATOM     25  C3  UNK     1      18.738  15.634   0.126  1.00  0.00     0.102 A 
ATOM     26  C4  UNK     1      19.989  16.259   0.239  1.00  0.00     0.035 A 
ATOM     27  C8  UNK     1      18.608  14.481  -0.643  1.00  0.00     0.079 A 
ATOM     28  C5  UNK     1      21.083  15.695  -0.427  1.00  0.00     0.002 A 
ATOM     29  C6  UNK     1      20.929  14.539  -1.197  1.00  0.00     0.002 A 
ATOM     30  C7  UNK     1      19.685  13.912  -1.331  1.00  0.00     0.033 A 
ENDBRANCH  21  22
ENDBRANCH   2  21
TORSDOF 6
ENDMDL
MODEL 8
REMARK VINA RESULT:      -5.8      3.169      6.340
REMARK  6 active torsions:
REMARK  status: ('A' for Active; 'I' for Inactive)
REMARK    1  A    between atoms: C1_2  and  C2_3 
REMARK       I    between atoms: C1_2  and  N4_13 
REMARK    2  A    between atoms: C2_3  and  N1_4 
REMARK    3  A    between atoms: N4_13  and  C9_14 
REMARK    4  A    between atoms: N4_13  and  C14_20 
REMARK    5  A    between atoms: C9_14  and  C10_15 
REMARK    6  A    between atoms: C17_23  and  C18_24 
ROOT
ATOM      1  O1  UNK     1      18.331   3.632   8.953  1.00  0.00    -0.271 OA
ATOM      2  C1  UNK     1      17.584   3.580   9.937  1.00  0.00     0.244 C 
ATOM      3  N4  UNK     1      16.218   3.319   9.794  1.00  0.00    -0.312 N 
ENDROOT
BRANCH   3   4
ATOM      4  C9  UNK     1      15.694   3.047   8.452  1.00  0.00     0.171 C 
BRANCH   4   5
ATOM      5  C10 UNK     1      15.456   1.571   8.276  1.00  0.00    -0.033 A 
ATOM      6  C11 UNK     1      14.162   0.950   8.301  1.00  0.00     0.016 A 
ATOM      7  C12 UNK     1      14.219  -0.413   8.113  1.00  0.00     0.050 A 
ATOM      8  S1  UNK     1      15.826  -0.965   7.931  1.00  0.00    -0.113 SA
ATOM      9  C13 UNK     1      16.447   0.619   8.104  1.00  0.00     0.058 A 
ENDBRANCH   4   5
ENDBRANCH   3   4
BRANCH   3  10
ATOM     10  C14 UNK     1      15.431   2.891  10.889  1.00  0.00     0.037 A 
ATOM     11  C15 UNK     1      14.345   3.663  11.305  1.00  0.00     0.030 A 
ATOM     12  C16 UNK     1      13.675   3.341  12.490  1.00  0.00     0.016 A 
ATOM     13  C17 UNK     1      14.091   2.248  13.256  1.00  0.00    -0.006 A 
ATOM     14  C21 UNK     1      15.140   1.441  12.802  1.00  0.00     0.016 A 
ATOM     15  C22 UNK     1      15.809   1.758  11.618  1.00  0.00     0.030 A 
BRANCH  13  16
ATOM     16  C18 UNK     1      13.475   1.958  14.598  1.00  0.00     0.086 A 
ATOM     17  C19 UNK     1      13.618   2.681  15.773  1.00  0.00     0.150 A 
ATOM     18  N5  UNK     1      12.940   2.053  16.758  1.00  0.00    -0.252 NA
ATOM     19  C20 UNK     1      12.378   0.962  16.202  1.00  0.00     0.233 A 
ATOM     20  N6  UNK     1      12.692   0.887  14.893  1.00  0.00    -0.240 NA
ENDBRANCH  13  16
ENDBRANCH   3  10
BRANCH   2  21
ATOM     21  C2  UNK     1      18.163   3.779  11.332  1.00  0.00     0.250 C 
BRANCH  21  22
ATOM     22  N1  UNK     1      17.961   5.128  11.820  1.00  0.00    -0.263 N 
ATOM     23  N2  UNK     1      18.534   6.170  11.180  1.00  0.00     0.006 NA
ATOM     24  N3  UNK     1      18.279   7.268  11.878  1.00  0.00    -0.158 NA
ATOM     25  C3  UNK     1      17.567   6.908  12.987  1.00  0.00     0.102 A 
ATOM     26  C4  UNK     1      17.083   7.687  14.049  1.00  0.00     0.035 A 
ATOM     27  C8  UNK     1      17.352   5.533  12.984  1.00  0.00     0.079 A 
ATOM     28  C5  UNK     1      16.384   7.051  15.082  1.00  0.00     0.002 A 
ATOM     29  C6  UNK     1      16.182   5.670  15.060  1.00  0.00     0.002 A 
ATOM     30  C7  UNK     1      16.672   4.877  14.015  1.00  0.00     0.033 A 
ENDBRANCH  21  22
ENDBRANCH   2  21
TORSDOF 6
ENDMDL
MODEL 9
REMARK VINA RESULT:      -5.8      2.858      6.447
REMARK  6 active torsions:
REMARK  status: ('A' for Active; 'I' for Inactive)
REMARK    1  A    between atoms: C1_2  and  C2_3 
REMARK       I    between atoms: C1_2  and  N4_13 
REMARK    2  A    between atoms: C2_3  and  N1_4 
REMARK    3  A    between atoms: N4_13  and  C9_14 
REMARK    4  A    between atoms: N4_13  and  C14_20 
REMARK    5  A    between atoms: C9_14  and  C10_15 
REMARK    6  A    between atoms: C17_23  and  C18_24 
ROOT
ATOM      1  O1  UNK     1      18.070   1.212   8.732  1.00  0.00    -0.271 OA
ATOM      2  C1  UNK     1      17.339   2.073   9.236  1.00  0.00     0.244 C 
ATOM      3  N4  UNK     1      16.349   1.728  10.160  1.00  0.00    -0.312 N 
ENDROOT
BRANCH   3   4
ATOM      4  C9  UNK     1      16.229   0.324  10.568  1.00  0.00     0.171 C 
BRANCH   4   5
ATOM      5  C10 UNK     1      15.034  -0.309   9.906  1.00  0.00    -0.033 A 
ATOM      6  C11 UNK     1      14.984  -0.696   8.523  1.00  0.00     0.016 A 
ATOM      7  C12 UNK     1      13.777  -1.255   8.168  1.00  0.00     0.050 A 
ATOM      8  S1  UNK     1      12.683  -1.298   9.480  1.00  0.00    -0.113 SA
ATOM      9  C13 UNK     1      13.823  -0.568  10.525  1.00  0.00     0.058 A 
ENDBRANCH   4   5
ENDBRANCH   3   4
BRANCH   3  10
ATOM     10  C14 UNK     1      15.768   2.695  11.014  1.00  0.00     0.037 A 
ATOM     11  C15 UNK     1      16.469   3.137  12.138  1.00  0.00     0.030 A 
ATOM     12  C16 UNK     1      15.833   3.953  13.079  1.00  0.00     0.016 A 
ATOM     13  C17 UNK     1      14.499   4.328  12.894  1.00  0.00    -0.006 A 
ATOM     14  C21 UNK     1      13.822   3.934  11.735  1.00  0.00     0.016 A 
ATOM     15  C22 UNK     1      14.455   3.122  10.793  1.00  0.00     0.030 A 
BRANCH  13  16
ATOM     16  C18 UNK     1      13.753   5.095  13.952  1.00  0.00     0.086 A 
ATOM     17  C19 UNK     1      12.586   4.725  14.605  1.00  0.00     0.150 A 
ATOM     18  N5  UNK     1      12.221   5.719  15.444  1.00  0.00    -0.252 NA
ATOM     19  C20 UNK     1      13.150   6.687  15.320  1.00  0.00     0.233 A 
ATOM     20  N6  UNK     1      14.086   6.327  14.418  1.00  0.00    -0.240 NA
ENDBRANCH  13  16
ENDBRANCH   3  10
BRANCH   2  21
ATOM     21  C2  UNK     1      17.537   3.537   8.866  1.00  0.00     0.250 C 
BRANCH  21  22
ATOM     22  N1  UNK     1      18.806   4.053   9.339  1.00  0.00    -0.263 N 
ATOM     23  N2  UNK     1      19.556   3.322  10.192  1.00  0.00     0.006 NA
ATOM     24  N3  UNK     1      20.604   4.053  10.543  1.00  0.00    -0.158 NA
ATOM     25  C3  UNK     1      20.495   5.270   9.932  1.00  0.00     0.102 A 
ATOM     26  C4  UNK     1      21.324   6.400  10.000  1.00  0.00     0.035 A 
ATOM     27  C8  UNK     1      19.342   5.305   9.153  1.00  0.00     0.079 A 
ATOM     28  C5  UNK     1      20.966   7.539   9.270  1.00  0.00     0.002 A 
ATOM     29  C6  UNK     1      19.802   7.554   8.498  1.00  0.00     0.002 A 
ATOM     30  C7  UNK     1      18.957   6.439   8.431  1.00  0.00     0.033 A 
ENDBRANCH  21  22
ENDBRANCH   2  21
TORSDOF 6
ENDMDL
MODEL 10
REMARK VINA RESULT:      -5.7     16.103     18.671
REMARK  6 active torsions:
REMARK  status: ('A' for Active; 'I' for Inactive)
REMARK    1  A    between atoms: C1_2  and  C2_3 
REMARK       I    between atoms: C1_2  and  N4_13 
REMARK    2  A    between atoms: C2_3  and  N1_4 
REMARK    3  A    between atoms: N4_13  and  C9_14 
REMARK    4  A    between atoms: N4_13  and  C14_20 
REMARK    5  A    between atoms: C9_14  and  C10_15 
REMARK    6  A    between atoms: C17_23  and  C18_24 
ROOT
ATOM      1  O1  UNK     1      22.511  11.055  -7.258  1.00  0.00    -0.271 OA
ATOM      2  C1  UNK     1      21.387  10.723  -6.863  1.00  0.00     0.244 C 
ATOM      3  N4  UNK     1      20.485  11.671  -6.372  1.00  0.00    -0.312 N 
ENDROOT
BRANCH   3   4
ATOM      4  C9  UNK     1      20.877  13.084  -6.388  1.00  0.00     0.171 C 
BRANCH   4   5
ATOM      5  C10 UNK     1      21.252  13.534  -5.002  1.00  0.00    -0.033 A 
ATOM      6  C11 UNK     1      22.566  13.406  -4.437  1.00  0.00     0.016 A 
ATOM      7  C12 UNK     1      22.646  13.898  -3.153  1.00  0.00     0.050 A 
ATOM      8  S1  UNK     1      21.142  14.494  -2.603  1.00  0.00    -0.113 SA
ATOM      9  C13 UNK     1      20.382  14.094  -4.082  1.00  0.00     0.058 A 
ENDBRANCH   4   5
ENDBRANCH   3   4
BRANCH   3  10
ATOM     10  C14 UNK     1      19.102  11.389  -6.272  1.00  0.00     0.037 A 
ATOM     11  C15 UNK     1      18.247  11.735  -7.321  1.00  0.00     0.030 A 
ATOM     12  C16 UNK     1      16.863  11.625  -7.156  1.00  0.00     0.016 A 
ATOM     13  C17 UNK     1      16.336  11.169  -5.944  1.00  0.00    -0.006 A 
ATOM     14  C21 UNK     1      17.198  10.764  -4.920  1.00  0.00     0.016 A 
ATOM     15  C22 UNK     1      18.581  10.870  -5.083  1.00  0.00     0.030 A 
BRANCH  13  16
ATOM     16  C18 UNK     1      14.852  11.164  -5.694  1.00  0.00     0.086 A 
ATOM     17  C19 UNK     1      13.882  11.937  -6.316  1.00  0.00     0.150 A 
ATOM     18  N5  UNK     1      12.682  11.661  -5.763  1.00  0.00    -0.252 NA
ATOM     19  C20 UNK     1      12.899  10.726  -4.818  1.00  0.00     0.233 A 
ATOM     20  N6  UNK     1      14.210  10.413  -4.760  1.00  0.00    -0.240 NA
ENDBRANCH  13  16
ENDBRANCH   3  10
BRANCH   2  21
ATOM     21  C2  UNK     1      20.966   9.261  -6.937  1.00  0.00     0.250 C 
BRANCH  21  22
ATOM     22  N1  UNK     1      21.545   8.471  -5.868  1.00  0.00    -0.263 N 
ATOM     23  N2  UNK     1      20.999   8.504  -4.633  1.00  0.00     0.006 NA
ATOM     24  N3  UNK     1      21.766   7.783  -3.829  1.00  0.00    -0.158 NA
ATOM     25  C3  UNK     1      22.826   7.320  -4.556  1.00  0.00     0.102 A 
ATOM     26  C4  UNK     1      23.926   6.541  -4.167  1.00  0.00     0.035 A 
ATOM     27  C8  UNK     1      22.716   7.753  -5.875  1.00  0.00     0.079 A 
ATOM     28  C5  UNK     1      24.889   6.214  -5.128  1.00  0.00     0.002 A 
ATOM     29  C6  UNK     1      24.762   6.662  -6.445  1.00  0.00     0.002 A 
ATOM     30  C7  UNK     1      23.677   7.451  -6.846  1.00  0.00     0.033 A 
ENDBRANCH  21  22
ENDBRANCH   2  21
TORSDOF 6
ENDMDL
