REMARK  6 active torsions:
REMARK  status: ('A' for Active; 'I' for Inactive)
REMARK    1  A    between atoms: C1_2  and  C2_3 
REMARK       I    between atoms: C1_2  and  N4_13 
REMARK    2  A    between atoms: C2_3  and  N1_4 
REMARK    3  A    between atoms: N4_13  and  C9_14 
REMARK    4  A    between atoms: N4_13  and  C14_20 
REMARK    5  A    between atoms: C9_14  and  C10_15 
REMARK    6  A    between atoms: C17_23  and  C18_24 
ROOT
ATOM      1  O1  UNK     1      55.724  24.865 -17.740  1.00  0.00    -0.271 OA
ATOM      2  C1  UNK     1      56.068  23.786 -18.236  1.00  0.00     0.244 C 
ATOM      3  N4  UNK     1      56.737  22.823 -17.476  1.00  0.00    -0.312 N 
ENDROOT
BRANCH   3   4
ATOM      4  C9  UNK     1      56.974  23.093 -16.054  1.00  0.00     0.171 C 
BRANCH   4   5
ATOM      5  C10 UNK     1      58.452  23.148 -15.775  1.00  0.00    -0.033 A 
ATOM      6  C11 UNK     1      59.138  22.273 -14.866  1.00  0.00     0.016 A 
ATOM      7  C12 UNK     1      60.489  22.530 -14.794  1.00  0.00     0.050 A 
ATOM      8  S1  UNK     1      60.944  23.839 -15.794  1.00  0.00    -0.113 SA
ATOM      9  C13 UNK     1      59.334  24.063 -16.325  1.00  0.00     0.058 A 
ENDBRANCH   4   5
ENDBRANCH   3   4
BRANCH   3  10
ATOM     10  C14 UNK     1      56.805  21.472 -17.892  1.00  0.00     0.037 A 
ATOM     11  C15 UNK     1      57.820  21.065 -18.760  1.00  0.00     0.030 A 
ATOM     12  C16 UNK     1      57.789  19.781 -19.314  1.00  0.00     0.016 A 
ATOM     13  C17 UNK     1      56.745  18.907 -18.999  1.00  0.00    -0.006 A 
ATOM     14  C21 UNK     1      55.765  19.298 -18.080  1.00  0.00     0.016 A 
ATOM     15  C22 UNK     1      55.795  20.578 -17.523  1.00  0.00     0.030 A 
BRANCH  13  16
ATOM     16  C18 UNK     1      56.616  17.571 -19.680  1.00  0.00     0.086 A 
ATOM     17  C19 UNK     1      57.440  17.033 -20.658  1.00  0.00     0.150 A 
ATOM     18  N5  UNK     1      56.944  15.835 -21.036  1.00  0.00    -0.252 NA
ATOM     19  C20 UNK     1      55.835  15.628 -20.300  1.00  0.00     0.233 A 
ATOM     20  N6  UNK     1      55.619  16.671 -19.473  1.00  0.00    -0.240 NA
ENDBRANCH  13  16
ENDBRANCH   3  10
BRANCH   2  21
ATOM     21  C2  UNK     1      55.735  23.488 -19.692  1.00  0.00     0.250 C 
BRANCH  21  22
ATOM     22  N1  UNK     1      56.689  24.086 -20.604  1.00  0.00    -0.263 N 
ATOM     23  N2  UNK     1      56.882  25.423 -20.597  1.00  0.00     0.006 NA
ATOM     24  N3  UNK     1      57.720  25.719 -21.581  1.00  0.00    -0.158 NA
ATOM     25  C3  UNK     1      58.030  24.561 -22.236  1.00  0.00     0.102 A 
ATOM     26  C4  UNK     1      58.845  24.340 -23.356  1.00  0.00     0.035 A 
ATOM     27  C8  UNK     1      57.375  23.490 -21.635  1.00  0.00     0.079 A 
ATOM     28  C5  UNK     1      58.982  23.033 -23.838  1.00  0.00     0.002 A 
ATOM     29  C6  UNK     1      58.313  21.973 -23.222  1.00  0.00     0.002 A 
ATOM     30  C7  UNK     1      57.485  22.179 -22.112  1.00  0.00     0.033 A 
ENDBRANCH  21  22
ENDBRANCH   2  21
TORSDOF 6
