REMARK  7 active torsions:
REMARK  status: ('A' for Active; 'I' for Inactive)
REMARK    1  A    between atoms: C_3  and  O_2 
REMARK    2  A    between atoms: C_5  and  C_6 
REMARK    3  A    between atoms: C_13  and  N_14 
REMARK    4  A    between atoms: C_15  and  N_14 
REMARK       I    between atoms: C_23  and  N_14 
REMARK    5  A    between atoms: C_15  and  C_16 
REMARK    6  A    between atoms: C_23  and  C_25 
REMARK    7  A    between atoms: C_25  and  N_26 
ROOT
HETATM    1  N   UNL     1     -40.411  12.260 -36.091  1.00  0.00    -0.310 N 
HETATM    2  C   UNL     1     -40.266  11.182 -36.970  1.00  0.00     0.244 C 
HETATM    3  O   UNL     1     -39.313  10.392 -36.844  1.00  0.00    -0.271 OA
ENDROOT
BRANCH   1   4
HETATM    4  C   UNL     1     -41.578  13.092 -36.027  1.00  0.00     0.071 A 
HETATM    5  C   UNL     1     -41.886  14.038 -37.028  1.00  0.00     0.096 A 
HETATM    6  C   UNL     1     -42.991  14.892 -36.846  1.00  0.00     0.051 A 
HETATM    7  C   UNL     1     -43.768  14.842 -35.687  1.00  0.00    -0.020 A 
HETATM    8  C   UNL     1     -43.462  13.907 -34.702  1.00  0.00     0.015 A 
HETATM    9  C   UNL     1     -42.381  13.040 -34.876  1.00  0.00     0.033 A 
BRANCH   5  10
HETATM   10  O   UNL     1     -41.044  14.108 -38.111  1.00  0.00    -0.354 OA
HETATM   11  C   UNL     1     -41.337  15.115 -39.078  1.00  0.00     0.210 C 
ENDBRANCH   5  10
BRANCH   7  12
HETATM   12  C   UNL     1     -44.900  15.798 -35.499  1.00  0.00     0.013 A 
HETATM   13  C   UNL     1     -45.661  16.070 -34.385  1.00  0.00     0.154 A 
HETATM   14  N   UNL     1     -46.595  17.011 -34.592  1.00  0.00    -0.162 NA
HETATM   15  N   UNL     1     -46.466  17.405 -35.874  1.00  0.00    -0.162 NA
HETATM   16  C   UNL     1     -45.470  16.673 -36.397  1.00  0.00     0.154 A 
ENDBRANCH   7  12
ENDBRANCH   1   4
BRANCH   1  17
HETATM   17  C   UNL     1     -39.359  12.377 -35.064  1.00  0.00     0.171 C 
BRANCH  17  18
HETATM   18  C   UNL     1     -39.453  13.509 -34.069  1.00  0.00    -0.038 A 
HETATM   19  C   UNL     1     -39.700  13.231 -32.715  1.00  0.00     0.032 A 
HETATM   20  C   UNL     1     -39.969  14.269 -31.826  1.00  0.00     0.034 A 
HETATM   21  C   UNL     1     -39.967  15.591 -32.263  1.00  0.00     0.024 A 
HETATM   22 CL   UNL     1     -40.354  13.905 -30.188  1.00  0.00    -0.084 Cl
HETATM   23  C   UNL     1     -39.648  15.880 -33.589  1.00  0.00     0.002 A 
HETATM   24  C   UNL     1     -39.378  14.846 -34.486  1.00  0.00     0.009 A 
ENDBRANCH  17  18
ENDBRANCH   1  17
BRANCH   2  25
HETATM   25  C   UNL     1     -41.253  10.939 -38.078  1.00  0.00     0.250 C 
BRANCH  25  26
HETATM   26  N   UNL     1     -42.379  10.072 -37.777  1.00  0.00    -0.263 N 
HETATM   27  C   UNL     1     -42.976   9.820 -36.562  1.00  0.00     0.079 C 
HETATM   28  C   UNL     1     -44.323   9.995 -36.871  1.00  0.00     0.102 C 
HETATM   29  C   UNL     1     -42.527   9.570 -35.261  1.00  0.00     0.033 C 
HETATM   30  N   UNL     1     -44.486  10.032 -38.227  1.00  0.00    -0.158 NA
HETATM   31  C   UNL     1     -45.262  10.112 -35.839  1.00  0.00     0.035 C 
HETATM   32  N   UNL     1     -43.284   9.943 -38.778  1.00  0.00     0.006 NA
HETATM   33  C   UNL     1     -44.827   9.932 -34.523  1.00  0.00     0.002 C 
HETATM   34  C   UNL     1     -43.493   9.616 -34.245  1.00  0.00     0.002 C 
ENDBRANCH  25  26
ENDBRANCH   2  25
TORSDOF 7
