MODEL 1
REMARK VINA RESULT:      -6.7      0.000      0.000
REMARK  7 active torsions:
REMARK  status: ('A' for Active; 'I' for Inactive)
REMARK    1  A    between atoms: C_3  and  O_2 
REMARK    2  A    between atoms: C_5  and  C_6 
REMARK    3  A    between atoms: C_13  and  N_14 
REMARK    4  A    between atoms: C_15  and  N_14 
REMARK       I    between atoms: C_23  and  N_14 
REMARK    5  A    between atoms: C_15  and  C_16 
REMARK    6  A    between atoms: C_23  and  C_25 
REMARK    7  A    between atoms: C_25  and  N_26 
ROOT
HETATM    1  N   UNL     1      18.076  13.105  -1.459  1.00  0.00    -0.310 N 
HETATM    2  C   UNL     1      17.809  11.740  -1.314  1.00  0.00     0.244 C 
HETATM    3  O   UNL     1      18.702  10.963  -0.930  1.00  0.00    -0.271 OA
ENDROOT
BRANCH   1   4
HETATM    4  C   UNL     1      17.068  14.100  -1.690  1.00  0.00     0.071 A 
HETATM    5  C   UNL     1      16.775  14.591  -2.981  1.00  0.00     0.096 A 
HETATM    6  C   UNL     1      15.847  15.641  -3.119  1.00  0.00     0.051 A 
HETATM    7  C   UNL     1      15.235  16.225  -2.007  1.00  0.00    -0.020 A 
HETATM    8  C   UNL     1      15.526  15.737  -0.736  1.00  0.00     0.015 A 
HETATM    9  C   UNL     1      16.429  14.683  -0.584  1.00  0.00     0.033 A 
BRANCH   5  10
HETATM   10  O   UNL     1      17.464  14.044  -4.036  1.00  0.00    -0.354 OA
HETATM   11  C   UNL     1      17.804  14.932  -5.099  1.00  0.00     0.210 C 
ENDBRANCH   5  10
BRANCH   7  12
HETATM   12  C   UNL     1      14.297  17.374  -2.182  1.00  0.00     0.013 A 
HETATM   13  C   UNL     1      12.933  17.443  -2.019  1.00  0.00     0.154 A 
HETATM   14  N   UNL     1      12.426  18.662  -2.257  1.00  0.00    -0.162 NA
HETATM   15  N   UNL     1      13.468  19.454  -2.580  1.00  0.00    -0.162 NA
HETATM   16  C   UNL     1      14.561  18.677  -2.541  1.00  0.00     0.154 A 
ENDBRANCH   7  12
ENDBRANCH   1   4
BRANCH   1  17
HETATM   17  C   UNL     1      19.460  13.510  -1.151  1.00  0.00     0.171 C 
BRANCH  17  18
HETATM   18  C   UNL     1      20.273  14.167  -2.240  1.00  0.00    -0.038 A 
HETATM   19  C   UNL     1      20.415  15.564  -2.261  1.00  0.00     0.032 A 
HETATM   20  C   UNL     1      21.005  16.191  -3.356  1.00  0.00     0.034 A 
HETATM   21  C   UNL     1      21.485  15.439  -4.425  1.00  0.00     0.024 A 
HETATM   22 CL   UNL     1      21.093  17.909  -3.404  1.00  0.00    -0.084 Cl
HETATM   23  C   UNL     1      21.417  14.048  -4.377  1.00  0.00     0.002 A 
HETATM   24  C   UNL     1      20.827  13.412  -3.284  1.00  0.00     0.009 A 
ENDBRANCH  17  18
ENDBRANCH   1  17
BRANCH   2  25
HETATM   25  C   UNL     1      16.446  11.175  -1.604  1.00  0.00     0.250 C 
BRANCH  25  26
HETATM   26  N   UNL     1      16.232  10.622  -2.930  1.00  0.00    -0.263 N 
HETATM   27  C   UNL     1      15.607  11.195  -4.015  1.00  0.00     0.079 C 
HETATM   28  C   UNL     1      16.535  10.962  -5.027  1.00  0.00     0.102 C 
HETATM   29  C   UNL     1      14.443  11.943  -4.217  1.00  0.00     0.033 C 
HETATM   30  N   UNL     1      17.464  10.053  -4.604  1.00  0.00    -0.158 NA
HETATM   31  C   UNL     1      16.417  11.641  -6.246  1.00  0.00     0.035 C 
HETATM   32  N   UNL     1      17.183   9.750  -3.345  1.00  0.00     0.006 NA
HETATM   33  C   UNL     1      15.295  12.449  -6.449  1.00  0.00     0.002 C 
HETATM   34  C   UNL     1      14.301  12.556  -5.471  1.00  0.00     0.002 C 
ENDBRANCH  25  26
ENDBRANCH   2  25
TORSDOF 7
ENDMDL
MODEL 2
REMARK VINA RESULT:      -6.7     16.408     18.510
REMARK  7 active torsions:
REMARK  status: ('A' for Active; 'I' for Inactive)
REMARK    1  A    between atoms: C_3  and  O_2 
REMARK    2  A    between atoms: C_5  and  C_6 
REMARK    3  A    between atoms: C_13  and  N_14 
REMARK    4  A    between atoms: C_15  and  N_14 
REMARK       I    between atoms: C_23  and  N_14 
REMARK    5  A    between atoms: C_15  and  C_16 
REMARK    6  A    between atoms: C_23  and  C_25 
REMARK    7  A    between atoms: C_25  and  N_26 
ROOT
HETATM    1  N   UNL     1      16.757   3.428  10.131  1.00  0.00    -0.310 N 
HETATM    2  C   UNL     1      16.355   3.238  11.457  1.00  0.00     0.244 C 
HETATM    3  O   UNL     1      15.168   2.978  11.723  1.00  0.00    -0.271 OA
ENDROOT
BRANCH   1   4
HETATM    4  C   UNL     1      18.126   3.523   9.713  1.00  0.00     0.071 A 
HETATM    5  C   UNL     1      19.034   2.451   9.854  1.00  0.00     0.096 A 
HETATM    6  C   UNL     1      20.387   2.652   9.518  1.00  0.00     0.051 A 
HETATM    7  C   UNL     1      20.853   3.892   9.079  1.00  0.00    -0.020 A 
HETATM    8  C   UNL     1      19.955   4.947   8.940  1.00  0.00     0.015 A 
HETATM    9  C   UNL     1      18.606   4.759   9.251  1.00  0.00     0.033 A 
BRANCH   5  10
HETATM   10  O   UNL     1      18.547   1.275  10.370  1.00  0.00    -0.354 OA
HETATM   11  C   UNL     1      19.430   0.540  11.216  1.00  0.00     0.210 C 
ENDBRANCH   5  10
BRANCH   7  12
HETATM   12  C   UNL     1      22.304   4.089   8.783  1.00  0.00     0.013 A 
HETATM   13  C   UNL     1      23.083   3.583   7.768  1.00  0.00     0.154 A 
HETATM   14  N   UNL     1      24.360   3.993   7.819  1.00  0.00    -0.162 NA
HETATM   15  N   UNL     1      24.459   4.809   8.886  1.00  0.00    -0.162 NA
HETATM   16  C   UNL     1      23.242   4.846   9.449  1.00  0.00     0.154 A 
ENDBRANCH   7  12
ENDBRANCH   1   4
BRANCH   1  17
HETATM   17  C   UNL     1      15.681   3.318   9.128  1.00  0.00     0.171 C 
BRANCH  17  18
HETATM   18  C   UNL     1      15.371   1.955   8.557  1.00  0.00    -0.038 A 
HETATM   19  C   UNL     1      14.184   1.299   8.919  1.00  0.00     0.032 A 
HETATM   20  C   UNL     1      13.976  -0.027   8.546  1.00  0.00     0.034 A 
HETATM   21  C   UNL     1      14.927  -0.704   7.787  1.00  0.00     0.024 A 
HETATM   22 CL   UNL     1      12.554  -0.843   9.070  1.00  0.00    -0.084 Cl
HETATM   23  C   UNL     1      16.073  -0.036   7.360  1.00  0.00     0.002 A 
HETATM   24  C   UNL     1      16.290   1.292   7.730  1.00  0.00     0.009 A 
ENDBRANCH  17  18
ENDBRANCH   1  17
BRANCH   2  25
HETATM   25  C   UNL     1      17.337   3.332  12.592  1.00  0.00     0.250 C 
BRANCH  25  26
HETATM   26  N   UNL     1      17.741   4.665  13.004  1.00  0.00    -0.263 N 
HETATM   27  C   UNL     1      18.959   5.287  12.848  1.00  0.00     0.079 C 
HETATM   28  C   UNL     1      18.579   6.519  12.321  1.00  0.00     0.102 C 
HETATM   29  C   UNL     1      20.299   4.912  12.999  1.00  0.00     0.033 C 
HETATM   30  N   UNL     1      17.232   6.689  12.467  1.00  0.00    -0.158 NA
HETATM   31  C   UNL     1      19.544   7.354  11.745  1.00  0.00     0.035 C 
HETATM   32  N   UNL     1      16.745   5.585  13.016  1.00  0.00     0.006 NA
HETATM   33  C   UNL     1      20.886   6.971  11.824  1.00  0.00     0.002 C 
HETATM   34  C   UNL     1      21.259   5.795  12.484  1.00  0.00     0.002 C 
ENDBRANCH  25  26
ENDBRANCH   2  25
TORSDOF 7
ENDMDL
MODEL 3
REMARK VINA RESULT:      -6.4      3.147      5.525
REMARK  7 active torsions:
REMARK  status: ('A' for Active; 'I' for Inactive)
REMARK    1  A    between atoms: C_3  and  O_2 
REMARK    2  A    between atoms: C_5  and  C_6 
REMARK    3  A    between atoms: C_13  and  N_14 
REMARK    4  A    between atoms: C_15  and  N_14 
REMARK       I    between atoms: C_23  and  N_14 
REMARK    5  A    between atoms: C_15  and  C_16 
REMARK    6  A    between atoms: C_23  and  C_25 
REMARK    7  A    between atoms: C_25  and  N_26 
ROOT
HETATM    1  N   UNL     1      17.254  15.892  -2.333  1.00  0.00    -0.310 N 
HETATM    2  C   UNL     1      17.337  15.670  -0.955  1.00  0.00     0.244 C 
HETATM    3  O   UNL     1      17.860  16.520  -0.212  1.00  0.00    -0.271 OA
ENDROOT
BRANCH   1   4
HETATM    4  C   UNL     1      16.490  15.076  -3.232  1.00  0.00     0.071 A 
HETATM    5  C   UNL     1      15.110  14.839  -3.049  1.00  0.00     0.096 A 
HETATM    6  C   UNL     1      14.449  13.944  -3.912  1.00  0.00     0.051 A 
HETATM    7  C   UNL     1      15.134  13.266  -4.923  1.00  0.00    -0.020 A 
HETATM    8  C   UNL     1      16.494  13.503  -5.102  1.00  0.00     0.015 A 
HETATM    9  C   UNL     1      17.160  14.402  -4.266  1.00  0.00     0.033 A 
BRANCH   5  10
HETATM   10  O   UNL     1      14.498  15.463  -1.990  1.00  0.00    -0.354 OA
HETATM   11  C   UNL     1      13.079  15.589  -2.063  1.00  0.00     0.210 C 
ENDBRANCH   5  10
BRANCH   7  12
HETATM   12  C   UNL     1      14.416  12.281  -5.787  1.00  0.00     0.013 A 
HETATM   13  C   UNL     1      13.179  11.698  -5.635  1.00  0.00     0.154 A 
HETATM   14  N   UNL     1      12.857  10.859  -6.631  1.00  0.00    -0.162 NA
HETATM   15  N   UNL     1      13.891  10.873  -7.495  1.00  0.00    -0.162 NA
HETATM   16  C   UNL     1      14.806  11.708  -6.977  1.00  0.00     0.154 A 
ENDBRANCH   7  12
ENDBRANCH   1   4
BRANCH   1  17
HETATM   17  C   UNL     1      17.842  17.161  -2.800  1.00  0.00     0.171 C 
BRANCH  17  18
HETATM   18  C   UNL     1      16.985  18.404  -2.761  1.00  0.00    -0.038 A 
HETATM   19  C   UNL     1      15.587  18.288  -2.699  1.00  0.00     0.032 A 
HETATM   20  C   UNL     1      14.785  19.417  -2.846  1.00  0.00     0.034 A 
HETATM   21  C   UNL     1      15.359  20.673  -3.026  1.00  0.00     0.024 A 
HETATM   22 CL   UNL     1      13.072  19.246  -2.854  1.00  0.00    -0.084 Cl
HETATM   23  C   UNL     1      16.747  20.806  -3.012  1.00  0.00     0.002 A 
HETATM   24  C   UNL     1      17.558  19.680  -2.866  1.00  0.00     0.009 A 
ENDBRANCH  17  18
ENDBRANCH   1  17
BRANCH   2  25
HETATM   25  C   UNL     1      16.792  14.415  -0.331  1.00  0.00     0.250 C 
BRANCH  25  26
HETATM   26  N   UNL     1      17.553  13.195  -0.537  1.00  0.00    -0.263 N 
HETATM   27  C   UNL     1      17.236  12.098  -1.306  1.00  0.00     0.079 C 
HETATM   28  C   UNL     1      18.414  11.911  -2.026  1.00  0.00     0.102 C 
HETATM   29  C   UNL     1      16.086  11.334  -1.531  1.00  0.00     0.033 C 
HETATM   30  N   UNL     1      19.418  12.654  -1.472  1.00  0.00    -0.158 NA
HETATM   31  C   UNL     1      18.419  11.065  -3.141  1.00  0.00     0.035 C 
HETATM   32  N   UNL     1      18.899  13.342  -0.465  1.00  0.00     0.006 NA
HETATM   33  C   UNL     1      17.260  10.339  -3.428  1.00  0.00     0.002 C 
HETATM   34  C   UNL     1      16.132  10.435  -2.606  1.00  0.00     0.002 C 
ENDBRANCH  25  26
ENDBRANCH   2  25
TORSDOF 7
ENDMDL
MODEL 4
REMARK VINA RESULT:      -6.3     23.386     26.500
REMARK  7 active torsions:
REMARK  status: ('A' for Active; 'I' for Inactive)
REMARK    1  A    between atoms: C_3  and  O_2 
REMARK    2  A    between atoms: C_5  and  C_6 
REMARK    3  A    between atoms: C_13  and  N_14 
REMARK    4  A    between atoms: C_15  and  N_14 
REMARK       I    between atoms: C_23  and  N_14 
REMARK    5  A    between atoms: C_15  and  C_16 
REMARK    6  A    between atoms: C_23  and  C_25 
REMARK    7  A    between atoms: C_25  and  N_26 
ROOT
HETATM    1  N   UNL     1       4.637  -0.282 -17.634  1.00  0.00    -0.310 N 
HETATM    2  C   UNL     1       5.905   0.197 -17.979  1.00  0.00     0.244 C 
HETATM    3  O   UNL     1       6.479   1.030 -17.255  1.00  0.00    -0.271 OA
ENDROOT
BRANCH   1   4
HETATM    4  C   UNL     1       3.992  -1.387 -18.284  1.00  0.00     0.071 A 
HETATM    5  C   UNL     1       3.082  -1.210 -19.348  1.00  0.00     0.096 A 
HETATM    6  C   UNL     1       2.409  -2.333 -19.867  1.00  0.00     0.051 A 
HETATM    7  C   UNL     1       2.602  -3.609 -19.334  1.00  0.00    -0.020 A 
HETATM    8  C   UNL     1       3.501  -3.781 -18.286  1.00  0.00     0.015 A 
HETATM    9  C   UNL     1       4.191  -2.680 -17.773  1.00  0.00     0.033 A 
BRANCH   5  10
HETATM   10  O   UNL     1       2.861   0.074 -19.783  1.00  0.00    -0.354 OA
HETATM   11  C   UNL     1       1.500   0.494 -19.855  1.00  0.00     0.210 C 
ENDBRANCH   5  10
BRANCH   7  12
HETATM   12  C   UNL     1       1.832  -4.772 -19.870  1.00  0.00     0.013 A 
HETATM   13  C   UNL     1       2.131  -6.115 -19.868  1.00  0.00     0.154 A 
HETATM   14  N   UNL     1       1.183  -6.875 -20.438  1.00  0.00    -0.162 NA
HETATM   15  N   UNL     1       0.203  -6.037 -20.830  1.00  0.00    -0.162 NA
HETATM   16  C   UNL     1       0.607  -4.801 -20.498  1.00  0.00     0.154 A 
ENDBRANCH   7  12
ENDBRANCH   1   4
BRANCH   1  17
HETATM   17  C   UNL     1       4.064   0.290 -16.401  1.00  0.00     0.171 C 
BRANCH  17  18
HETATM   18  C   UNL     1       2.977   1.330 -16.533  1.00  0.00    -0.038 A 
HETATM   19  C   UNL     1       1.676   1.041 -16.091  1.00  0.00     0.032 A 
HETATM   20  C   UNL     1       0.632   1.919 -16.373  1.00  0.00     0.034 A 
HETATM   21  C   UNL     1       0.871   3.102 -17.067  1.00  0.00     0.024 A 
HETATM   22 CL   UNL     1      -0.972   1.509 -15.899  1.00  0.00    -0.084 Cl
HETATM   23  C   UNL     1       2.173   3.432 -17.442  1.00  0.00     0.002 A 
HETATM   24  C   UNL     1       3.224   2.558 -17.164  1.00  0.00     0.009 A 
ENDBRANCH  17  18
ENDBRANCH   1  17
BRANCH   2  25
HETATM   25  C   UNL     1       6.612  -0.284 -19.215  1.00  0.00     0.250 C 
BRANCH  25  26
HETATM   26  N   UNL     1       7.292  -1.564 -19.128  1.00  0.00    -0.263 N 
HETATM   27  C   UNL     1       7.221  -2.641 -19.983  1.00  0.00     0.079 C 
HETATM   28  C   UNL     1       8.569  -2.932 -20.180  1.00  0.00     0.102 C 
HETATM   29  C   UNL     1       6.198  -3.311 -20.663  1.00  0.00     0.033 C 
HETATM   30  N   UNL     1       9.325  -2.267 -19.256  1.00  0.00    -0.158 NA
HETATM   31  C   UNL     1       8.950  -3.790 -21.219  1.00  0.00     0.035 C 
HETATM   32  N   UNL     1       8.505  -1.527 -18.524  1.00  0.00     0.006 NA
HETATM   33  C   UNL     1       7.946  -4.422 -21.958  1.00  0.00     0.002 C 
HETATM   34  C   UNL     1       6.596  -4.224 -21.651  1.00  0.00     0.002 C 
ENDBRANCH  25  26
ENDBRANCH   2  25
TORSDOF 7
ENDMDL
MODEL 5
REMARK VINA RESULT:      -6.2      2.616      5.582
REMARK  7 active torsions:
REMARK  status: ('A' for Active; 'I' for Inactive)
REMARK    1  A    between atoms: C_3  and  O_2 
REMARK    2  A    between atoms: C_5  and  C_6 
REMARK    3  A    between atoms: C_13  and  N_14 
REMARK    4  A    between atoms: C_15  and  N_14 
REMARK       I    between atoms: C_23  and  N_14 
REMARK    5  A    between atoms: C_15  and  C_16 
REMARK    6  A    between atoms: C_23  and  C_25 
REMARK    7  A    between atoms: C_25  and  N_26 
ROOT
HETATM    1  N   UNL     1      19.288  14.106  -3.209  1.00  0.00    -0.310 N 
HETATM    2  C   UNL     1      20.569  14.665  -3.257  1.00  0.00     0.244 C 
HETATM    3  O   UNL     1      21.510  14.038  -3.775  1.00  0.00    -0.271 OA
ENDROOT
BRANCH   1   4
HETATM    4  C   UNL     1      18.110  14.829  -2.827  1.00  0.00     0.071 A 
HETATM    5  C   UNL     1      17.340  14.475  -1.699  1.00  0.00     0.096 A 
HETATM    6  C   UNL     1      16.139  15.166  -1.445  1.00  0.00     0.051 A 
HETATM    7  C   UNL     1      15.681  16.170  -2.300  1.00  0.00    -0.020 A 
HETATM    8  C   UNL     1      16.444  16.518  -3.412  1.00  0.00     0.015 A 
HETATM    9  C   UNL     1      17.647  15.856  -3.666  1.00  0.00     0.033 A 
BRANCH   5  10
HETATM   10  O   UNL     1      17.786  13.425  -0.934  1.00  0.00    -0.354 OA
HETATM   11  C   UNL     1      16.820  12.430  -0.598  1.00  0.00     0.210 C 
ENDBRANCH   5  10
BRANCH   7  12
HETATM   12  C   UNL     1      14.376  16.847  -2.035  1.00  0.00     0.013 A 
HETATM   13  C   UNL     1      13.296  16.437  -1.287  1.00  0.00     0.154 A 
HETATM   14  N   UNL     1      12.290  17.325  -1.268  1.00  0.00    -0.162 NA
HETATM   15  N   UNL     1      12.692  18.376  -2.009  1.00  0.00    -0.162 NA
HETATM   16  C   UNL     1      13.919  18.073  -2.462  1.00  0.00     0.154 A 
ENDBRANCH   7  12
ENDBRANCH   1   4
BRANCH   1  17
HETATM   17  C   UNL     1      19.174  12.752  -3.784  1.00  0.00     0.171 C 
BRANCH  17  18
HETATM   18  C   UNL     1      17.926  12.408  -4.562  1.00  0.00    -0.038 A 
HETATM   19  C   UNL     1      17.652  13.068  -5.771  1.00  0.00     0.032 A 
HETATM   20  C   UNL     1      16.422  12.892  -6.400  1.00  0.00     0.034 A 
HETATM   21  C   UNL     1      15.466  12.039  -5.855  1.00  0.00     0.024 A 
HETATM   22 CL   UNL     1      16.069  13.775  -7.835  1.00  0.00    -0.084 Cl
HETATM   23  C   UNL     1      15.760  11.322  -4.696  1.00  0.00     0.002 A 
HETATM   24  C   UNL     1      16.990  11.494  -4.059  1.00  0.00     0.009 A 
ENDBRANCH  17  18
ENDBRANCH   1  17
BRANCH   2  25
HETATM   25  C   UNL     1      20.845  16.034  -2.699  1.00  0.00     0.250 C 
BRANCH  25  26
HETATM   26  N   UNL     1      20.870  16.162  -1.252  1.00  0.00    -0.263 N 
HETATM   27  C   UNL     1      19.992  16.828  -0.427  1.00  0.00     0.079 C 
HETATM   28  C   UNL     1      19.731  15.862   0.542  1.00  0.00     0.102 C 
HETATM   29  C   UNL     1      19.339  18.065  -0.454  1.00  0.00     0.033 C 
HETATM   30  N   UNL     1      20.638  14.845   0.438  1.00  0.00    -0.158 NA
HETATM   31  C   UNL     1      18.655  16.033   1.421  1.00  0.00     0.035 C 
HETATM   32  N   UNL     1      21.423  15.112  -0.596  1.00  0.00     0.006 NA
HETATM   33  C   UNL     1      17.943  17.235   1.371  1.00  0.00     0.002 C 
HETATM   34  C   UNL     1      18.312  18.251   0.484  1.00  0.00     0.002 C 
ENDBRANCH  25  26
ENDBRANCH   2  25
TORSDOF 7
ENDMDL
MODEL 6
REMARK VINA RESULT:      -6.1     14.985     18.474
REMARK  7 active torsions:
REMARK  status: ('A' for Active; 'I' for Inactive)
REMARK    1  A    between atoms: C_3  and  O_2 
REMARK    2  A    between atoms: C_5  and  C_6 
REMARK    3  A    between atoms: C_13  and  N_14 
REMARK    4  A    between atoms: C_15  and  N_14 
REMARK       I    between atoms: C_23  and  N_14 
REMARK    5  A    between atoms: C_15  and  C_16 
REMARK    6  A    between atoms: C_23  and  C_25 
REMARK    7  A    between atoms: C_25  and  N_26 
ROOT
HETATM    1  N   UNL     1      17.806   4.526  11.359  1.00  0.00    -0.310 N 
HETATM    2  C   UNL     1      17.611   5.596  12.239  1.00  0.00     0.244 C 
HETATM    3  O   UNL     1      16.610   5.627  12.977  1.00  0.00    -0.271 OA
ENDROOT
BRANCH   1   4
HETATM    4  C   UNL     1      19.020   4.299  10.629  1.00  0.00     0.071 A 
HETATM    5  C   UNL     1      19.352   5.032   9.470  1.00  0.00     0.096 A 
HETATM    6  C   UNL     1      20.509   4.683   8.747  1.00  0.00     0.051 A 
HETATM    7  C   UNL     1      21.316   3.612   9.136  1.00  0.00    -0.020 A 
HETATM    8  C   UNL     1      20.987   2.892  10.281  1.00  0.00     0.015 A 
HETATM    9  C   UNL     1      19.853   3.238  11.020  1.00  0.00     0.033 A 
BRANCH   5  10
HETATM   10  O   UNL     1      18.483   6.021   9.078  1.00  0.00    -0.354 OA
HETATM   11  C   UNL     1      19.068   7.181   8.488  1.00  0.00     0.210 C 
ENDBRANCH   5  10
BRANCH   7  12
HETATM   12  C   UNL     1      22.506   3.231   8.317  1.00  0.00     0.013 A 
HETATM   13  C   UNL     1      22.984   1.990   7.963  1.00  0.00     0.154 A 
HETATM   14  N   UNL     1      24.087   2.040   7.200  1.00  0.00    -0.162 NA
HETATM   15  N   UNL     1      24.368   3.344   7.015  1.00  0.00    -0.162 NA
HETATM   16  C   UNL     1      23.433   4.033   7.688  1.00  0.00     0.154 A 
ENDBRANCH   7  12
ENDBRANCH   1   4
BRANCH   1  17
HETATM   17  C   UNL     1      16.746   3.501  11.374  1.00  0.00     0.171 C 
BRANCH  17  18
HETATM   18  C   UNL     1      16.524   2.684  10.123  1.00  0.00    -0.038 A 
HETATM   19  C   UNL     1      16.825   1.313  10.121  1.00  0.00     0.032 A 
HETATM   20  C   UNL     1      16.797   0.593   8.929  1.00  0.00     0.034 A 
HETATM   21  C   UNL     1      16.443   1.217   7.736  1.00  0.00     0.024 A 
HETATM   22 CL   UNL     1      17.252  -1.067   8.929  1.00  0.00    -0.084 Cl
HETATM   23  C   UNL     1      16.069   2.560   7.742  1.00  0.00     0.002 A 
HETATM   24  C   UNL     1      16.095   3.288   8.932  1.00  0.00     0.009 A 
ENDBRANCH  17  18
ENDBRANCH   1  17
BRANCH   2  25
HETATM   25  C   UNL     1      18.600   6.725  12.329  1.00  0.00     0.250 C 
BRANCH  25  26
HETATM   26  N   UNL     1      19.654   6.599  13.320  1.00  0.00    -0.263 N 
HETATM   27  C   UNL     1      21.018   6.575  13.133  1.00  0.00     0.079 C 
HETATM   28  C   UNL     1      21.446   7.503  14.080  1.00  0.00     0.102 C 
HETATM   29  C   UNL     1      21.892   5.963  12.229  1.00  0.00     0.033 C 
HETATM   30  N   UNL     1      20.425   7.788  14.943  1.00  0.00    -0.158 NA
HETATM   31  C   UNL     1      22.755   7.995  14.027  1.00  0.00     0.035 C 
HETATM   32  N   UNL     1      19.358   7.115  14.538  1.00  0.00     0.006 NA
HETATM   33  C   UNL     1      23.632   7.446  13.087  1.00  0.00     0.002 C 
HETATM   34  C   UNL     1      23.221   6.413  12.239  1.00  0.00     0.002 C 
ENDBRANCH  25  26
ENDBRANCH   2  25
TORSDOF 7
ENDMDL
MODEL 7
REMARK VINA RESULT:      -6.1      2.739      3.813
REMARK  7 active torsions:
REMARK  status: ('A' for Active; 'I' for Inactive)
REMARK    1  A    between atoms: C_3  and  O_2 
REMARK    2  A    between atoms: C_5  and  C_6 
REMARK    3  A    between atoms: C_13  and  N_14 
REMARK    4  A    between atoms: C_15  and  N_14 
REMARK       I    between atoms: C_23  and  N_14 
REMARK    5  A    between atoms: C_15  and  C_16 
REMARK    6  A    between atoms: C_23  and  C_25 
REMARK    7  A    between atoms: C_25  and  N_26 
ROOT
HETATM    1  N   UNL     1      19.516  16.011  -1.131  1.00  0.00    -0.310 N 
HETATM    2  C   UNL     1      20.333  14.928  -1.471  1.00  0.00     0.244 C 
HETATM    3  O   UNL     1      21.502  14.867  -1.050  1.00  0.00    -0.271 OA
ENDROOT
BRANCH   1   4
HETATM    4  C   UNL     1      18.106  16.066  -1.391  1.00  0.00     0.071 A 
HETATM    5  C   UNL     1      17.578  16.636  -2.569  1.00  0.00     0.096 A 
HETATM    6  C   UNL     1      16.181  16.749  -2.708  1.00  0.00     0.051 A 
HETATM    7  C   UNL     1      15.312  16.337  -1.695  1.00  0.00    -0.020 A 
HETATM    8  C   UNL     1      15.836  15.775  -0.535  1.00  0.00     0.015 A 
HETATM    9  C   UNL     1      17.219  15.638  -0.390  1.00  0.00     0.033 A 
BRANCH   5  10
HETATM   10  O   UNL     1      18.472  17.104  -3.500  1.00  0.00    -0.354 OA
HETATM   11  C   UNL     1      18.208  18.398  -4.039  1.00  0.00     0.210 C 
ENDBRANCH   5  10
BRANCH   7  12
HETATM   12  C   UNL     1      13.838  16.521  -1.849  1.00  0.00     0.013 A 
HETATM   13  C   UNL     1      12.820  15.594  -1.853  1.00  0.00     0.154 A 
HETATM   14  N   UNL     1      11.602  16.138  -2.006  1.00  0.00    -0.162 NA
HETATM   15  N   UNL     1      11.785  17.469  -2.098  1.00  0.00    -0.162 NA
HETATM   16  C   UNL     1      13.108  17.677  -2.014  1.00  0.00     0.154 A 
ENDBRANCH   7  12
ENDBRANCH   1   4
BRANCH   1  17
HETATM   17  C   UNL     1      20.155  17.037  -0.285  1.00  0.00     0.171 C 
BRANCH  17  18
HETATM   18  C   UNL     1      19.741  18.477  -0.471  1.00  0.00    -0.038 A 
HETATM   19  C   UNL     1      20.521  19.331  -1.268  1.00  0.00     0.032 A 
HETATM   20  C   UNL     1      20.253  20.697  -1.299  1.00  0.00     0.034 A 
HETATM   21  C   UNL     1      19.194  21.225  -0.565  1.00  0.00     0.024 A 
HETATM   22 CL   UNL     1      21.270  21.742  -2.213  1.00  0.00    -0.084 Cl
HETATM   23  C   UNL     1      18.369  20.374   0.169  1.00  0.00     0.002 A 
HETATM   24  C   UNL     1      18.631  19.004   0.205  1.00  0.00     0.009 A 
ENDBRANCH  17  18
ENDBRANCH   1  17
BRANCH   2  25
HETATM   25  C   UNL     1      19.826  13.810  -2.338  1.00  0.00     0.250 C 
BRANCH  25  26
HETATM   26  N   UNL     1      18.835  12.922  -1.754  1.00  0.00    -0.263 N 
HETATM   27  C   UNL     1      17.652  12.471  -2.296  1.00  0.00     0.079 C 
HETATM   28  C   UNL     1      17.738  11.102  -2.052  1.00  0.00     0.102 C 
HETATM   29  C   UNL     1      16.606  13.042  -3.028  1.00  0.00     0.033 C 
HETATM   30  N   UNL     1      18.744  10.852  -1.162  1.00  0.00    -0.158 NA
HETATM   31  C   UNL     1      16.862  10.225  -2.703  1.00  0.00     0.035 C 
HETATM   32  N   UNL     1      19.329  12.009  -0.883  1.00  0.00     0.006 NA
HETATM   33  C   UNL     1      15.846  10.768  -3.494  1.00  0.00     0.002 C 
HETATM   34  C   UNL     1      15.691  12.153  -3.612  1.00  0.00     0.002 C 
ENDBRANCH  25  26
ENDBRANCH   2  25
TORSDOF 7
ENDMDL
MODEL 8
REMARK VINA RESULT:      -6.0     20.858     23.914
REMARK  7 active torsions:
REMARK  status: ('A' for Active; 'I' for Inactive)
REMARK    1  A    between atoms: C_3  and  O_2 
REMARK    2  A    between atoms: C_5  and  C_6 
REMARK    3  A    between atoms: C_13  and  N_14 
REMARK    4  A    between atoms: C_15  and  N_14 
REMARK       I    between atoms: C_23  and  N_14 
REMARK    5  A    between atoms: C_15  and  C_16 
REMARK    6  A    between atoms: C_23  and  C_25 
REMARK    7  A    between atoms: C_25  and  N_26 
ROOT
HETATM    1  N   UNL     1       4.959   1.650 -17.133  1.00  0.00    -0.310 N 
HETATM    2  C   UNL     1       5.652   0.654 -17.829  1.00  0.00     0.244 C 
HETATM    3  O   UNL     1       6.877   0.510 -17.668  1.00  0.00    -0.271 OA
ENDROOT
BRANCH   1   4
HETATM    4  C   UNL     1       3.529   1.755 -17.094  1.00  0.00     0.071 A 
HETATM    5  C   UNL     1       2.804   2.533 -18.021  1.00  0.00     0.096 A 
HETATM    6  C   UNL     1       1.412   2.674 -17.857  1.00  0.00     0.051 A 
HETATM    7  C   UNL     1       0.742   2.084 -16.783  1.00  0.00    -0.020 A 
HETATM    8  C   UNL     1       1.460   1.316 -15.871  1.00  0.00     0.015 A 
HETATM    9  C   UNL     1       2.838   1.151 -16.031  1.00  0.00     0.033 A 
BRANCH   5  10
HETATM   10  O   UNL     1       3.518   3.163 -19.011  1.00  0.00    -0.354 OA
HETATM   11  C   UNL     1       3.313   4.569 -19.144  1.00  0.00     0.210 C 
ENDBRANCH   5  10
BRANCH   7  12
HETATM   12  C   UNL     1      -0.726   2.296 -16.606  1.00  0.00     0.013 A 
HETATM   13  C   UNL     1      -1.629   2.977 -17.390  1.00  0.00     0.154 A 
HETATM   14  N   UNL     1      -2.883   2.944 -16.913  1.00  0.00    -0.162 NA
HETATM   15  N   UNL     1      -2.845   2.214 -15.781  1.00  0.00    -0.162 NA
HETATM   16  C   UNL     1      -1.565   1.849 -15.609  1.00  0.00     0.154 A 
ENDBRANCH   7  12
ENDBRANCH   1   4
BRANCH   1  17
HETATM   17  C   UNL     1       5.790   2.489 -16.250  1.00  0.00     0.171 C 
BRANCH  17  18
HETATM   18  C   UNL     1       6.042   3.922 -16.654  1.00  0.00    -0.038 A 
HETATM   19  C   UNL     1       5.359   4.963 -16.003  1.00  0.00     0.032 A 
HETATM   20  C   UNL     1       5.446   6.266 -16.487  1.00  0.00     0.034 A 
HETATM   21  C   UNL     1       6.230   6.555 -17.601  1.00  0.00     0.024 A 
HETATM   22 CL   UNL     1       4.535   7.515 -15.729  1.00  0.00    -0.084 Cl
HETATM   23  C   UNL     1       6.970   5.540 -18.207  1.00  0.00     0.002 A 
HETATM   24  C   UNL     1       6.889   4.232 -17.728  1.00  0.00     0.009 A 
ENDBRANCH  17  18
ENDBRANCH   1  17
BRANCH   2  25
HETATM   25  C   UNL     1       4.943  -0.274 -18.777  1.00  0.00     0.250 C 
BRANCH  25  26
HETATM   26  N   UNL     1       4.124  -1.318 -18.186  1.00  0.00    -0.263 N 
HETATM   27  C   UNL     1       3.116  -2.058 -18.764  1.00  0.00     0.079 C 
HETATM   28  C   UNL     1       3.477  -3.353 -18.401  1.00  0.00     0.102 C 
HETATM   29  C   UNL     1       2.034  -1.785 -19.607  1.00  0.00     0.033 C 
HETATM   30  N   UNL     1       4.438  -3.311 -17.430  1.00  0.00    -0.158 NA
HETATM   31  C   UNL     1       2.869  -4.445 -19.031  1.00  0.00     0.035 C 
HETATM   32  N   UNL     1       4.732  -2.038 -17.212  1.00  0.00     0.006 NA
HETATM   33  C   UNL     1       1.827  -4.197 -19.929  1.00  0.00     0.002 C 
HETATM   34  C   UNL     1       1.385  -2.892 -20.173  1.00  0.00     0.002 C 
ENDBRANCH  25  26
ENDBRANCH   2  25
TORSDOF 7
ENDMDL
MODEL 9
REMARK VINA RESULT:      -6.0     21.314     24.646
REMARK  7 active torsions:
REMARK  status: ('A' for Active; 'I' for Inactive)
REMARK    1  A    between atoms: C_3  and  O_2 
REMARK    2  A    between atoms: C_5  and  C_6 
REMARK    3  A    between atoms: C_13  and  N_14 
REMARK    4  A    between atoms: C_15  and  N_14 
REMARK       I    between atoms: C_23  and  N_14 
REMARK    5  A    between atoms: C_15  and  C_16 
REMARK    6  A    between atoms: C_23  and  C_25 
REMARK    7  A    between atoms: C_25  and  N_26 
ROOT
HETATM    1  N   UNL     1       2.533   1.741 -18.730  1.00  0.00    -0.310 N 
HETATM    2  C   UNL     1       3.577   2.653 -18.547  1.00  0.00     0.244 C 
HETATM    3  O   UNL     1       4.660   2.496 -19.139  1.00  0.00    -0.271 OA
ENDROOT
BRANCH   1   4
HETATM    4  C   UNL     1       1.193   1.950 -18.262  1.00  0.00     0.071 A 
HETATM    5  C   UNL     1       0.248   2.705 -18.990  1.00  0.00     0.096 A 
HETATM    6  C   UNL     1      -1.014   2.956 -18.418  1.00  0.00     0.051 A 
HETATM    7  C   UNL     1      -1.340   2.499 -17.140  1.00  0.00    -0.020 A 
HETATM    8  C   UNL     1      -0.406   1.754 -16.425  1.00  0.00     0.015 A 
HETATM    9  C   UNL     1       0.843   1.480 -16.985  1.00  0.00     0.033 A 
BRANCH   5  10
HETATM   10  O   UNL     1       0.643   3.205 -20.207  1.00  0.00    -0.354 OA
HETATM   11  C   UNL     1       0.871   4.612 -20.270  1.00  0.00     0.210 C 
ENDBRANCH   5  10
BRANCH   7  12
HETATM   12  C   UNL     1      -2.667   2.828 -16.539  1.00  0.00     0.013 A 
HETATM   13  C   UNL     1      -3.862   2.147 -16.591  1.00  0.00     0.154 A 
HETATM   14  N   UNL     1      -4.851   2.750 -15.913  1.00  0.00    -0.162 NA
HETATM   15  N   UNL     1      -4.322   3.864 -15.371  1.00  0.00    -0.162 NA
HETATM   16  C   UNL     1      -3.037   3.901 -15.758  1.00  0.00     0.154 A 
ENDBRANCH   7  12
ENDBRANCH   1   4
BRANCH   1  17
HETATM   17  C   UNL     1       2.836   0.614 -19.631  1.00  0.00     0.171 C 
BRANCH  17  18
HETATM   18  C   UNL     1       3.139  -0.732 -19.016  1.00  0.00    -0.038 A 
HETATM   19  C   UNL     1       4.278  -0.892 -18.210  1.00  0.00     0.032 A 
HETATM   20  C   UNL     1       4.664  -2.163 -17.791  1.00  0.00     0.034 A 
HETATM   21  C   UNL     1       3.912  -3.281 -18.141  1.00  0.00     0.024 A 
HETATM   22 CL   UNL     1       6.110  -2.351 -16.875  1.00  0.00    -0.084 Cl
HETATM   23  C   UNL     1       2.739  -3.122 -18.877  1.00  0.00     0.002 A 
HETATM   24  C   UNL     1       2.345  -1.852 -19.302  1.00  0.00     0.009 A 
ENDBRANCH  17  18
ENDBRANCH   1  17
BRANCH   2  25
HETATM   25  C   UNL     1       3.422   3.848 -17.647  1.00  0.00     0.250 C 
BRANCH  25  26
HETATM   26  N   UNL     1       4.070   3.781 -16.349  1.00  0.00    -0.263 N 
HETATM   27  C   UNL     1       4.561   2.681 -15.683  1.00  0.00     0.079 C 
HETATM   28  C   UNL     1       5.830   3.121 -15.314  1.00  0.00     0.102 C 
HETATM   29  C   UNL     1       4.119   1.374 -15.450  1.00  0.00     0.033 C 
HETATM   30  N   UNL     1       5.919   4.474 -15.487  1.00  0.00    -0.158 NA
HETATM   31  C   UNL     1       6.780   2.198 -14.860  1.00  0.00     0.035 C 
HETATM   32  N   UNL     1       4.772   4.889 -16.003  1.00  0.00     0.006 NA
HETATM   33  C   UNL     1       6.382   0.871 -14.682  1.00  0.00     0.002 C 
HETATM   34  C   UNL     1       5.062   0.478 -14.924  1.00  0.00     0.002 C 
ENDBRANCH  25  26
ENDBRANCH   2  25
TORSDOF 7
ENDMDL
MODEL 10
REMARK VINA RESULT:      -5.9     18.783     21.869
REMARK  7 active torsions:
REMARK  status: ('A' for Active; 'I' for Inactive)
REMARK    1  A    between atoms: C_3  and  O_2 
REMARK    2  A    between atoms: C_5  and  C_6 
REMARK    3  A    between atoms: C_13  and  N_14 
REMARK    4  A    between atoms: C_15  and  N_14 
REMARK       I    between atoms: C_23  and  N_14 
REMARK    5  A    between atoms: C_15  and  C_16 
REMARK    6  A    between atoms: C_23  and  C_25 
REMARK    7  A    between atoms: C_25  and  N_26 
ROOT
HETATM    1  N   UNL     1       6.298   1.129 -15.803  1.00  0.00    -0.310 N 
HETATM    2  C   UNL     1       5.149   0.498 -16.288  1.00  0.00     0.244 C 
HETATM    3  O   UNL     1       4.869  -0.661 -15.931  1.00  0.00    -0.271 OA
ENDROOT
BRANCH   1   4
HETATM    4  C   UNL     1       6.589   2.521 -15.990  1.00  0.00     0.071 A 
HETATM    5  C   UNL     1       7.276   3.002 -17.125  1.00  0.00     0.096 A 
HETATM    6  C   UNL     1       7.618   4.367 -17.191  1.00  0.00     0.051 A 
HETATM    7  C   UNL     1       7.319   5.245 -16.147  1.00  0.00    -0.020 A 
HETATM    8  C   UNL     1       6.641   4.767 -15.029  1.00  0.00     0.015 A 
HETATM    9  C   UNL     1       6.278   3.420 -14.957  1.00  0.00     0.033 A 
BRANCH   5  10
HETATM   10  O   UNL     1       7.623   2.087 -18.088  1.00  0.00    -0.354 OA
HETATM   11  C   UNL     1       8.781   2.390 -18.864  1.00  0.00     0.210 C 
ENDBRANCH   5  10
BRANCH   7  12
HETATM   12  C   UNL     1       7.744   6.674 -16.222  1.00  0.00     0.013 A 
HETATM   13  C   UNL     1       8.947   7.228 -16.596  1.00  0.00     0.154 A 
HETATM   14  N   UNL     1       8.957   8.569 -16.549  1.00  0.00    -0.162 NA
HETATM   15  N   UNL     1       7.728   8.948 -16.146  1.00  0.00    -0.162 NA
HETATM   16  C   UNL     1       7.029   7.819 -15.947  1.00  0.00     0.154 A 
ENDBRANCH   7  12
ENDBRANCH   1   4
BRANCH   1  17
HETATM   17  C   UNL     1       7.121   0.316 -14.888  1.00  0.00     0.171 C 
BRANCH  17  18
HETATM   18  C   UNL     1       8.187  -0.573 -15.482  1.00  0.00    -0.038 A 
HETATM   19  C   UNL     1       8.064  -1.969 -15.394  1.00  0.00     0.032 A 
HETATM   20  C   UNL     1       9.123  -2.789 -15.774  1.00  0.00     0.034 A 
HETATM   21  C   UNL     1      10.301  -2.237 -16.271  1.00  0.00     0.024 A 
HETATM   22 CL   UNL     1       8.988  -4.494 -15.578  1.00  0.00    -0.084 Cl
HETATM   23  C   UNL     1      10.402  -0.856 -16.434  1.00  0.00     0.002 A 
HETATM   24  C   UNL     1       9.346  -0.027 -16.055  1.00  0.00     0.009 A 
ENDBRANCH  17  18
ENDBRANCH   1  17
BRANCH   2  25
HETATM   25  C   UNL     1       4.217   1.195 -17.240  1.00  0.00     0.250 C 
BRANCH  25  26
HETATM   26  N   UNL     1       2.967   0.523 -17.548  1.00  0.00    -0.263 N 
HETATM   27  C   UNL     1       1.681   0.901 -17.231  1.00  0.00     0.079 C 
HETATM   28  C   UNL     1       1.039   0.765 -18.460  1.00  0.00     0.102 C 
HETATM   29  C   UNL     1       1.042   1.419 -16.100  1.00  0.00     0.033 C 
HETATM   30  N   UNL     1       1.834   0.063 -19.322  1.00  0.00    -0.158 NA
HETATM   31  C   UNL     1      -0.230   1.326 -18.646  1.00  0.00     0.035 C 
HETATM   32  N   UNL     1       2.973  -0.197 -18.697  1.00  0.00     0.006 NA
HETATM   33  C   UNL     1      -0.864   1.910 -17.546  1.00  0.00     0.002 C 
HETATM   34  C   UNL     1      -0.259   1.910 -16.285  1.00  0.00     0.002 C 
ENDBRANCH  25  26
ENDBRANCH   2  25
TORSDOF 7
ENDMDL
