@<TRIPOS>MOLECULE
Docked structure.pdb
34 38 1 0 0
SMALL
NO_CHARGES


@<TRIPOS>ATOM
      1 N         -22.2728    3.3629   15.6952 N.am      1 UNL   -0.3100
      2 C         -22.2667    2.2415   14.8597 C.2       1 UNL    0.2440
      3 O         -23.2935    1.5506   14.7288 O.2       1 UNL   -0.2710
      4 C         -21.2149    4.3311   15.7470 C.ar      1 UNL    0.0710
      5 C         -20.2073    4.2949   16.7355 C.ar      1 UNL    0.0960
      6 C         -19.2617    5.3370   16.7866 C.ar      1 UNL    0.0510
      7 C         -19.3174    6.4172   15.9021 C.ar      1 UNL   -0.0200
      8 C         -20.3119    6.4482   14.9283 C.ar      1 UNL    0.0150
      9 C         -21.2451    5.4124   14.8519 C.ar      1 UNL    0.0330
     10 O         -20.2432    3.2583   17.6361 O.3       1 UNL   -0.3540
     11 C         -19.8460    3.5651   18.9710 C.3       1 UNL    0.2100
     12 C         -18.3333    7.5347   16.0171 C.2       1 UNL    0.0130
     13 C         -17.2912    7.8921   15.1937 C.2       1 UNL    0.1540
     14 N         -16.6209    8.9744   15.6167 N.2       1 UNL   -0.1620
     15 N         -17.2239    9.3788   16.7526 N.2       1 UNL   -0.1620
     16 C         -18.2240    8.5137   16.9795 C.2       1 UNL    0.1540
     17 C         -23.5468    3.6196   16.3920 C.3       1 UNL    0.1710
     18 C         -23.5482    3.6290   17.9014 C.ar      1 UNL   -0.0380
     19 C         -23.5169    4.8506   18.5935 C.ar      1 UNL    0.0320
     20 C         -23.3339    4.8681   19.9742 C.ar      1 UNL    0.0340
     21 C         -23.2095    3.6769   20.6842 C.ar      1 UNL    0.0240
     22 CL        -23.2115    6.3759   20.7947 Cl        1 UNL   -0.0840
     23 C         -23.3163    2.4592   20.0151 C.ar      1 UNL    0.0020
     24 C         -23.4992    2.4328   18.6319 C.ar      1 UNL    0.0090
     25 C         -21.0358    1.8450   14.0925 C.3       1 UNL    0.2500
     26 N         -20.1762    0.8442   14.7003 N.ar      1 UNL   -0.2630
     27 C         -19.0010    1.0213   15.3958 C.ar      1 UNL    0.0790
     28 C         -19.2274    0.2440   16.5290 C.ar      1 UNL    0.1020
     29 C         -17.8546    1.8059   15.2364 C.ar      1 UNL    0.0330
     30 N         -20.3184   -0.5556   16.3325 N.ar      1 UNL   -0.1580
     31 C         -18.3858    0.3765   17.6404 C.ar      1 UNL    0.0350
     32 N         -20.8160   -0.2673   15.1387 N.ar      1 UNL    0.0060
     33 C         -17.2676    1.2074   17.5301 C.ar      1 UNL    0.0020
     34 C         -16.9803    1.8689   16.3318 C.ar      1 UNL    0.0020
@<TRIPOS>BOND
     1    1    2 am
     2    1    4 1
     3    1   17 1
     4    2    3 2
     5    2   25 1
     6    4    5 ar
     7    4    9 ar
     8    5    6 ar
     9    5   10 1
    10    6    7 ar
    11    7    8 ar
    12    7   12 1
    13    8    9 ar
    14   10   11 1
    15   12   13 2
    16   12   16 2
    17   13   14 2
    18   14   15 2
    19   15   16 2
    20   17   18 1
    21   18   19 ar
    22   18   24 ar
    23   19   20 ar
    24   20   21 ar
    25   20   22 1
    26   21   23 ar
    27   23   24 ar
    28   25   26 1
    29   26   27 ar
    30   26   32 ar
    31   27   28 ar
    32   27   29 ar
    33   28   30 ar
    34   28   31 ar
    35   29   34 ar
    36   30   32 ar
    37   31   33 ar
    38   33   34 ar
@<TRIPOS>SUBSTRUCTURE
     1 UNL     1 RESIDUE           4 A     UNL     0 ROOT
