MODEL 1
REMARK VINA RESULT:      -6.7      0.000      0.000
REMARK  3 active torsions:
REMARK  status: ('A' for Active; 'I' for Inactive)
REMARK    1  A    between atoms: C1_2  and  S1_3 
REMARK    2  A    between atoms: C1_2  and  C9_13 
REMARK    3  A    between atoms: S1_3  and  C2_4 
ROOT
ATOM      1  O1  UNK     1      17.236   1.423   9.849  1.00  0.00    -0.278 OA
ATOM      2  C1  UNK     1      17.256   2.452   9.182  1.00  0.00     0.244 C 
ENDROOT
BRANCH   2   3
ATOM      3  S1  UNK     1      16.037   2.757   7.956  1.00  0.00    -0.018 SA
BRANCH   3   4
ATOM      4  C2  UNK     1      15.063   1.319   8.164  1.00  0.00     0.143 A 
ATOM      5  N1  UNK     1      15.238   0.206   7.492  1.00  0.00    -0.233 NA
ATOM      6  C3  UNK     1      14.267  -0.721   7.858  1.00  0.00     0.075 A 
ATOM      7  C4  UNK     1      14.111  -2.019   7.330  1.00  0.00     0.033 A 
ATOM      8  C8  UNK     1      13.373  -0.293   8.842  1.00  0.00     0.036 A 
ATOM      9  C5  UNK     1      13.074  -2.842   7.790  1.00  0.00     0.002 A 
ATOM     10  C6  UNK     1      12.196  -2.392   8.771  1.00  0.00     0.002 A 
ATOM     11  C7  UNK     1      12.332  -1.114   9.315  1.00  0.00     0.021 A 
ATOM     12  S2  UNK     1      13.779   1.310   9.305  1.00  0.00    -0.061 SA
ENDBRANCH   3   4
ENDBRANCH   2   3
BRANCH   2  13
ATOM     13  C9  UNK     1      18.391   3.421   9.282  1.00  0.00     0.115 A 
ATOM     14  C10 UNK     1      19.657   2.947   9.606  1.00  0.00     0.037 A 
ATOM     15  C11 UNK     1      20.711   3.855   9.654  1.00  0.00     0.016 A 
ATOM     16  C12 UNK     1      20.477   5.208   9.377  1.00  0.00    -0.007 A 
ATOM     17  C13 UNK     1      21.507   6.166   9.413  1.00  0.00     0.014 A 
ATOM     18  C17 UNK     1      19.160   5.597   9.052  1.00  0.00     0.068 A 
ATOM     19  C14 UNK     1      21.235   7.502   9.129  1.00  0.00     0.001 A 
ATOM     20  C15 UNK     1      19.941   7.887   8.803  1.00  0.00     0.002 A 
ATOM     21  C16 UNK     1      18.919   6.934   8.767  1.00  0.00     0.032 A 
ATOM     22  N2  UNK     1      18.139   4.727   9.001  1.00  0.00    -0.244 NA
ENDBRANCH   2  13
TORSDOF 3
ENDMDL
MODEL 2
REMARK VINA RESULT:      -6.6     28.425     31.534
REMARK  3 active torsions:
REMARK  status: ('A' for Active; 'I' for Inactive)
REMARK    1  A    between atoms: C1_2  and  S1_3 
REMARK    2  A    between atoms: C1_2  and  C9_13 
REMARK    3  A    between atoms: S1_3  and  C2_4 
ROOT
ATOM      1  O1  UNK     1       2.972   0.621 -20.154  1.00  0.00    -0.278 OA
ATOM      2  C1  UNK     1       2.331  -0.069 -19.368  1.00  0.00     0.244 C 
ENDROOT
BRANCH   2   3
ATOM      3  S1  UNK     1       1.445   0.661 -18.040  1.00  0.00    -0.018 SA
BRANCH   3   4
ATOM      4  C2  UNK     1       2.777   1.424 -17.201  1.00  0.00     0.143 A 
ATOM      5  N1  UNK     1       3.627   0.785 -16.432  1.00  0.00    -0.233 NA
ATOM      6  C3  UNK     1       4.528   1.689 -15.877  1.00  0.00     0.075 A 
ATOM      7  C4  UNK     1       5.568   1.383 -14.974  1.00  0.00     0.033 A 
ATOM      8  C8  UNK     1       4.357   3.018 -16.265  1.00  0.00     0.036 A 
ATOM      9  C5  UNK     1       6.395   2.404 -14.487  1.00  0.00     0.002 A 
ATOM     10  C6  UNK     1       6.203   3.722 -14.890  1.00  0.00     0.002 A 
ATOM     11  C7  UNK     1       5.186   4.051 -15.786  1.00  0.00     0.021 A 
ATOM     12  S2  UNK     1       3.032   3.115 -17.354  1.00  0.00    -0.061 SA
ENDBRANCH   3   4
ENDBRANCH   2   3
BRANCH   2  13
ATOM     13  C9  UNK     1       2.388  -1.563 -19.420  1.00  0.00     0.115 A 
ATOM     14  C10 UNK     1       3.345  -2.229 -18.663  1.00  0.00     0.037 A 
ATOM     15  C11 UNK     1       3.358  -3.621 -18.689  1.00  0.00     0.016 A 
ATOM     16  C12 UNK     1       2.418  -4.311 -19.465  1.00  0.00    -0.007 A 
ATOM     17  C13 UNK     1       2.390  -5.716 -19.528  1.00  0.00     0.014 A 
ATOM     18  C17 UNK     1       1.480  -3.551 -20.197  1.00  0.00     0.068 A 
ATOM     19  C14 UNK     1       1.438  -6.366 -20.309  1.00  0.00     0.001 A 
ATOM     20  C15 UNK     1       0.510  -5.621 -21.026  1.00  0.00     0.002 A 
ATOM     21  C16 UNK     1       0.540  -4.225 -20.963  1.00  0.00     0.032 A 
ATOM     22  N2  UNK     1       1.460  -2.209 -20.175  1.00  0.00    -0.244 NA
ENDBRANCH   2  13
TORSDOF 3
ENDMDL
MODEL 3
REMARK VINA RESULT:      -6.5     26.282     27.156
REMARK  3 active torsions:
REMARK  status: ('A' for Active; 'I' for Inactive)
REMARK    1  A    between atoms: C1_2  and  S1_3 
REMARK    2  A    between atoms: C1_2  and  C9_13 
REMARK    3  A    between atoms: S1_3  and  C2_4 
ROOT
ATOM      1  O1  UNK     1       9.809  13.241 -16.219  1.00  0.00    -0.278 OA
ATOM      2  C1  UNK     1       9.654  13.263 -15.002  1.00  0.00     0.244 C 
ENDROOT
BRANCH   2   3
ATOM      3  S1  UNK     1       9.943  11.832 -14.028  1.00  0.00    -0.018 SA
BRANCH   3   4
ATOM      4  C2  UNK     1       8.349  11.115 -14.104  1.00  0.00     0.143 A 
ATOM      5  N1  UNK     1       7.473  11.158 -13.128  1.00  0.00    -0.233 NA
ATOM      6  C3  UNK     1       6.331  10.450 -13.491  1.00  0.00     0.075 A 
ATOM      7  C4  UNK     1       5.186  10.246 -12.692  1.00  0.00     0.033 A 
ATOM      8  C8  UNK     1       6.353   9.896 -14.772  1.00  0.00     0.036 A 
ATOM      9  C5  UNK     1       4.111   9.498 -13.188  1.00  0.00     0.002 A 
ATOM     10  C6  UNK     1       4.158   8.955 -14.469  1.00  0.00     0.002 A 
ATOM     11  C7  UNK     1       5.276   9.147 -15.282  1.00  0.00     0.021 A 
ATOM     12  S2  UNK     1       7.848  10.285 -15.522  1.00  0.00    -0.061 SA
ENDBRANCH   3   4
ENDBRANCH   2   3
BRANCH   2  13
ATOM     13  C9  UNK     1       9.080  14.462 -14.313  1.00  0.00     0.115 A 
ATOM     14  C10 UNK     1       9.937  15.344 -13.667  1.00  0.00     0.037 A 
ATOM     15  C11 UNK     1       9.393  16.477 -13.068  1.00  0.00     0.016 A 
ATOM     16  C12 UNK     1       8.011  16.700 -13.130  1.00  0.00    -0.007 A 
ATOM     17  C13 UNK     1       7.411  17.827 -12.539  1.00  0.00     0.014 A 
ATOM     18  C17 UNK     1       7.219  15.752 -13.812  1.00  0.00     0.068 A 
ATOM     19  C14 UNK     1       6.034  18.016 -12.624  1.00  0.00     0.001 A 
ATOM     20  C15 UNK     1       5.252  17.087 -13.301  1.00  0.00     0.002 A 
ATOM     21  C16 UNK     1       5.850  15.968 -13.886  1.00  0.00     0.032 A 
ATOM     22  N2  UNK     1       7.737  14.659 -14.394  1.00  0.00    -0.244 NA
ENDBRANCH   2  13
TORSDOF 3
ENDMDL
MODEL 4
REMARK VINA RESULT:      -6.5     28.111     30.069
REMARK  3 active torsions:
REMARK  status: ('A' for Active; 'I' for Inactive)
REMARK    1  A    between atoms: C1_2  and  S1_3 
REMARK    2  A    between atoms: C1_2  and  C9_13 
REMARK    3  A    between atoms: S1_3  and  C2_4 
ROOT
ATOM      1  O1  UNK     1       0.713   1.263 -17.255  1.00  0.00    -0.278 OA
ATOM      2  C1  UNK     1       1.795   1.544 -17.761  1.00  0.00     0.244 C 
ENDROOT
BRANCH   2   3
ATOM      3  S1  UNK     1       2.070   1.335 -19.481  1.00  0.00    -0.018 SA
BRANCH   3   4
ATOM      4  C2  UNK     1       1.956  -0.408 -19.574  1.00  0.00     0.143 A 
ATOM      5  N1  UNK     1       2.729  -1.234 -18.908  1.00  0.00    -0.233 NA
ATOM      6  C3  UNK     1       2.414  -2.547 -19.245  1.00  0.00     0.075 A 
ATOM      7  C4  UNK     1       3.048  -3.709 -18.759  1.00  0.00     0.033 A 
ATOM      8  C8  UNK     1       1.368  -2.694 -20.159  1.00  0.00     0.036 A 
ATOM      9  C5  UNK     1       2.629  -4.971 -19.199  1.00  0.00     0.002 A 
ATOM     10  C6  UNK     1       1.585  -5.092 -20.112  1.00  0.00     0.002 A 
ATOM     11  C7  UNK     1       0.936  -3.958 -20.604  1.00  0.00     0.021 A 
ATOM     12  S2  UNK     1       0.781  -1.139 -20.590  1.00  0.00    -0.061 SA
ENDBRANCH   3   4
ENDBRANCH   2   3
BRANCH   2  13
ATOM     13  C9  UNK     1       2.967   1.939 -16.918  1.00  0.00     0.115 A 
ATOM     14  C10 UNK     1       3.593   0.975 -16.136  1.00  0.00     0.037 A 
ATOM     15  C11 UNK     1       4.707   1.349 -15.391  1.00  0.00     0.016 A 
ATOM     16  C12 UNK     1       5.169   2.670 -15.446  1.00  0.00    -0.007 A 
ATOM     17  C13 UNK     1       6.290   3.099 -14.712  1.00  0.00     0.014 A 
ATOM     18  C17 UNK     1       4.475   3.579 -16.272  1.00  0.00     0.068 A 
ATOM     19  C14 UNK     1       6.722   4.421 -14.795  1.00  0.00     0.001 A 
ATOM     20  C15 UNK     1       6.042   5.316 -15.612  1.00  0.00     0.002 A 
ATOM     21  C16 UNK     1       4.929   4.888 -16.340  1.00  0.00     0.032 A 
ATOM     22  N2  UNK     1       3.401   3.225 -16.995  1.00  0.00    -0.244 NA
ENDBRANCH   2  13
TORSDOF 3
ENDMDL
MODEL 5
REMARK VINA RESULT:      -6.5      3.342      8.298
REMARK  3 active torsions:
REMARK  status: ('A' for Active; 'I' for Inactive)
REMARK    1  A    between atoms: C1_2  and  S1_3 
REMARK    2  A    between atoms: C1_2  and  C9_13 
REMARK    3  A    between atoms: S1_3  and  C2_4 
ROOT
ATOM      1  O1  UNK     1      15.623   5.848  13.323  1.00  0.00    -0.278 OA
ATOM      2  C1  UNK     1      16.082   4.735  13.086  1.00  0.00     0.244 C 
ENDROOT
BRANCH   2   3
ATOM      3  S1  UNK     1      17.663   4.263  13.687  1.00  0.00    -0.018 SA
BRANCH   3   4
ATOM      4  C2  UNK     1      18.665   5.086  12.513  1.00  0.00     0.143 A 
ATOM      5  N1  UNK     1      18.215   5.953  11.636  1.00  0.00    -0.233 NA
ATOM      6  C3  UNK     1      19.258   6.380  10.820  1.00  0.00     0.075 A 
ATOM      7  C4  UNK     1      19.159   7.286   9.743  1.00  0.00     0.033 A 
ATOM      8  C8  UNK     1      20.510   5.838  11.117  1.00  0.00     0.036 A 
ATOM      9  C5  UNK     1      20.299   7.616   8.999  1.00  0.00     0.002 A 
ATOM     10  C6  UNK     1      21.536   7.061   9.315  1.00  0.00     0.002 A 
ATOM     11  C7  UNK     1      21.663   6.167  10.379  1.00  0.00     0.021 A 
ATOM     12  S2  UNK     1      20.353   4.772  12.455  1.00  0.00    -0.061 SA
ENDBRANCH   3   4
ENDBRANCH   2   3
BRANCH   2  13
ATOM     13  C9  UNK     1      15.384   3.786  12.164  1.00  0.00     0.115 A 
ATOM     14  C10 UNK     1      14.188   3.206  12.570  1.00  0.00     0.037 A 
ATOM     15  C11 UNK     1      13.529   2.359  11.684  1.00  0.00     0.016 A 
ATOM     16  C12 UNK     1      14.076   2.114  10.418  1.00  0.00    -0.007 A 
ATOM     17  C13 UNK     1      13.451   1.266   9.487  1.00  0.00     0.014 A 
ATOM     18  C17 UNK     1      15.292   2.752  10.090  1.00  0.00     0.068 A 
ATOM     19  C14 UNK     1      14.025   1.049   8.236  1.00  0.00     0.001 A 
ATOM     20  C15 UNK     1      15.219   1.680   7.908  1.00  0.00     0.002 A 
ATOM     21  C16 UNK     1      15.839   2.523   8.835  1.00  0.00     0.032 A 
ATOM     22  N2  UNK     1      15.932   3.572  10.938  1.00  0.00    -0.244 NA
ENDBRANCH   2  13
TORSDOF 3
ENDMDL
MODEL 6
REMARK VINA RESULT:      -6.4      3.422      8.400
REMARK  3 active torsions:
REMARK  status: ('A' for Active; 'I' for Inactive)
REMARK    1  A    between atoms: C1_2  and  S1_3 
REMARK    2  A    between atoms: C1_2  and  C9_13 
REMARK    3  A    between atoms: S1_3  and  C2_4 
ROOT
ATOM      1  O1  UNK     1      19.404   2.637  10.263  1.00  0.00    -0.278 OA
ATOM      2  C1  UNK     1      18.625   3.297   9.583  1.00  0.00     0.244 C 
ENDROOT
BRANCH   2   3
ATOM      3  S1  UNK     1      19.050   4.908   9.031  1.00  0.00    -0.018 SA
BRANCH   3   4
ATOM      4  C2  UNK     1      19.070   5.736  10.572  1.00  0.00     0.143 A 
ATOM      5  N1  UNK     1      18.020   5.879  11.347  1.00  0.00    -0.233 NA
ATOM      6  C3  UNK     1      18.363   6.627  12.468  1.00  0.00     0.075 A 
ATOM      7  C4  UNK     1      17.495   7.015  13.511  1.00  0.00     0.033 A 
ATOM      8  C8  UNK     1      19.700   7.022  12.538  1.00  0.00     0.036 A 
ATOM      9  C5  UNK     1      17.982   7.782  14.578  1.00  0.00     0.002 A 
ATOM     10  C6  UNK     1      19.319   8.164  14.622  1.00  0.00     0.002 A 
ATOM     11  C7  UNK     1      20.200   7.789  13.607  1.00  0.00     0.021 A 
ATOM     12  S2  UNK     1      20.529   6.429  11.155  1.00  0.00    -0.061 SA
ENDBRANCH   3   4
ENDBRANCH   2   3
BRANCH   2  13
ATOM     13  C9  UNK     1      17.233   2.820   9.312  1.00  0.00     0.115 A 
ATOM     14  C10 UNK     1      16.798   2.717   7.997  1.00  0.00     0.037 A 
ATOM     15  C11 UNK     1      15.515   2.232   7.760  1.00  0.00     0.016 A 
ATOM     16  C12 UNK     1      14.701   1.861   8.838  1.00  0.00    -0.007 A 
ATOM     17  C13 UNK     1      13.397   1.367   8.654  1.00  0.00     0.014 A 
ATOM     18  C17 UNK     1      15.229   1.995  10.140  1.00  0.00     0.068 A 
ATOM     19  C14 UNK     1      12.620   1.006   9.751  1.00  0.00     0.001 A 
ATOM     20  C15 UNK     1      13.139   1.132  11.034  1.00  0.00     0.002 A 
ATOM     21  C16 UNK     1      14.435   1.623  11.215  1.00  0.00     0.032 A 
ATOM     22  N2  UNK     1      16.466   2.460  10.376  1.00  0.00    -0.244 NA
ENDBRANCH   2  13
TORSDOF 3
ENDMDL
MODEL 7
REMARK VINA RESULT:      -6.3     26.635     28.471
REMARK  3 active torsions:
REMARK  status: ('A' for Active; 'I' for Inactive)
REMARK    1  A    between atoms: C1_2  and  S1_3 
REMARK    2  A    between atoms: C1_2  and  C9_13 
REMARK    3  A    between atoms: S1_3  and  C2_4 
ROOT
ATOM      1  O1  UNK     1       8.286  11.239 -13.226  1.00  0.00    -0.278 OA
ATOM      2  C1  UNK     1       7.438  11.331 -14.107  1.00  0.00     0.244 C 
ENDROOT
BRANCH   2   3
ATOM      3  S1  UNK     1       7.690  12.371 -15.498  1.00  0.00    -0.018 SA
BRANCH   3   4
ATOM      4  C2  UNK     1       7.374  13.921 -14.751  1.00  0.00     0.143 A 
ATOM      5  N1  UNK     1       8.304  14.708 -14.263  1.00  0.00    -0.233 NA
ATOM      6  C3  UNK     1       7.715  15.834 -13.696  1.00  0.00     0.075 A 
ATOM      7  C4  UNK     1       8.387  16.890 -13.046  1.00  0.00     0.033 A 
ATOM      8  C8  UNK     1       6.323  15.893 -13.792  1.00  0.00     0.036 A 
ATOM      9  C5  UNK     1       7.658  17.960 -12.511  1.00  0.00     0.002 A 
ATOM     10  C6  UNK     1       6.271  17.995 -12.618  1.00  0.00     0.002 A 
ATOM     11  C7  UNK     1       5.582  16.966 -13.262  1.00  0.00     0.021 A 
ATOM     12  S2  UNK     1       5.761  14.495 -14.617  1.00  0.00    -0.061 SA
ENDBRANCH   3   4
ENDBRANCH   2   3
BRANCH   2  13
ATOM     13  C9  UNK     1       6.099  10.677 -13.968  1.00  0.00     0.115 A 
ATOM     14  C10 UNK     1       5.334  10.937 -12.837  1.00  0.00     0.037 A 
ATOM     15  C11 UNK     1       4.073  10.356 -12.743  1.00  0.00     0.016 A 
ATOM     16  C12 UNK     1       3.608   9.533 -13.777  1.00  0.00    -0.007 A 
ATOM     17  C13 UNK     1       2.343   8.920 -13.730  1.00  0.00     0.014 A 
ATOM     18  C17 UNK     1       4.451   9.330 -14.890  1.00  0.00     0.068 A 
ATOM     19  C14 UNK     1       1.913   8.111 -14.779  1.00  0.00     0.001 A 
ATOM     20  C15 UNK     1       2.740   7.914 -15.879  1.00  0.00     0.002 A 
ATOM     21  C16 UNK     1       3.996   8.524 -15.923  1.00  0.00     0.032 A 
ATOM     22  N2  UNK     1       5.667   9.890 -14.989  1.00  0.00    -0.244 NA
ENDBRANCH   2  13
TORSDOF 3
ENDMDL
MODEL 8
REMARK VINA RESULT:      -6.3     26.388     27.740
REMARK  3 active torsions:
REMARK  status: ('A' for Active; 'I' for Inactive)
REMARK    1  A    between atoms: C1_2  and  S1_3 
REMARK    2  A    between atoms: C1_2  and  C9_13 
REMARK    3  A    between atoms: S1_3  and  C2_4 
ROOT
ATOM      1  O1  UNK     1       1.164   6.450 -16.606  1.00  0.00    -0.278 OA
ATOM      2  C1  UNK     1       2.316   6.867 -16.667  1.00  0.00     0.244 C 
ENDROOT
BRANCH   2   3
ATOM      3  S1  UNK     1       3.451   6.219 -17.838  1.00  0.00    -0.018 SA
BRANCH   3   4
ATOM      4  C2  UNK     1       3.993   4.810 -16.954  1.00  0.00     0.143 A 
ATOM      5  N1  UNK     1       5.004   4.809 -16.116  1.00  0.00    -0.233 NA
ATOM      6  C3  UNK     1       5.204   3.523 -15.624  1.00  0.00     0.075 A 
ATOM      7  C4  UNK     1       6.215   3.121 -14.727  1.00  0.00     0.033 A 
ATOM      8  C8  UNK     1       4.305   2.560 -16.085  1.00  0.00     0.036 A 
ATOM      9  C5  UNK     1       6.301   1.781 -14.324  1.00  0.00     0.002 A 
ATOM     10  C6  UNK     1       5.393   0.840 -14.799  1.00  0.00     0.002 A 
ATOM     11  C7  UNK     1       4.379   1.213 -15.684  1.00  0.00     0.021 A 
ATOM     12  S2  UNK     1       3.191   3.306 -17.159  1.00  0.00    -0.061 SA
ENDBRANCH   3   4
ENDBRANCH   2   3
BRANCH   2  13
ATOM     13  C9  UNK     1       2.845   7.840 -15.660  1.00  0.00     0.115 A 
ATOM     14  C10 UNK     1       1.992   8.323 -14.675  1.00  0.00     0.037 A 
ATOM     15  C11 UNK     1       2.509   9.194 -13.721  1.00  0.00     0.016 A 
ATOM     16  C12 UNK     1       3.860   9.559 -13.772  1.00  0.00    -0.007 A 
ATOM     17  C13 UNK     1       4.432  10.436 -12.833  1.00  0.00     0.014 A 
ATOM     18  C17 UNK     1       4.653   9.014 -14.804  1.00  0.00     0.068 A 
ATOM     19  C14 UNK     1       5.781  10.773 -12.914  1.00  0.00     0.001 A 
ATOM     20  C15 UNK     1       6.565  10.233 -13.927  1.00  0.00     0.002 A 
ATOM     21  C16 UNK     1       5.995   9.361 -14.859  1.00  0.00     0.032 A 
ATOM     22  N2  UNK     1       4.162   8.171 -15.727  1.00  0.00    -0.244 NA
ENDBRANCH   2  13
TORSDOF 3
ENDMDL
MODEL 9
REMARK VINA RESULT:      -6.3     26.678     27.627
REMARK  3 active torsions:
REMARK  status: ('A' for Active; 'I' for Inactive)
REMARK    1  A    between atoms: C1_2  and  S1_3 
REMARK    2  A    between atoms: C1_2  and  C9_13 
REMARK    3  A    between atoms: S1_3  and  C2_4 
ROOT
ATOM      1  O1  UNK     1       9.737  14.590 -13.326  1.00  0.00    -0.278 OA
ATOM      2  C1  UNK     1       8.783  15.153 -13.854  1.00  0.00     0.244 C 
ENDROOT
BRANCH   2   3
ATOM      3  S1  UNK     1       8.223  14.678 -15.448  1.00  0.00    -0.018 SA
BRANCH   3   4
ATOM      4  C2  UNK     1       7.425  13.178 -15.030  1.00  0.00     0.143 A 
ATOM      5  N1  UNK     1       6.743  12.989 -13.925  1.00  0.00    -0.233 NA
ATOM      6  C3  UNK     1       6.284  11.676 -13.876  1.00  0.00     0.075 A 
ATOM      7  C4  UNK     1       5.541  11.090 -12.830  1.00  0.00     0.033 A 
ATOM      8  C8  UNK     1       6.610  10.887 -14.981  1.00  0.00     0.036 A 
ATOM      9  C5  UNK     1       5.155   9.745 -12.914  1.00  0.00     0.002 A 
ATOM     10  C6  UNK     1       5.494   8.980 -14.026  1.00  0.00     0.002 A 
ATOM     11  C7  UNK     1       6.222   9.538 -15.078  1.00  0.00     0.021 A 
ATOM     12  S2  UNK     1       7.512  11.834 -16.095  1.00  0.00    -0.061 SA
ENDBRANCH   3   4
ENDBRANCH   2   3
BRANCH   2  13
ATOM     13  C9  UNK     1       8.146  16.354 -13.229  1.00  0.00     0.115 A 
ATOM     14  C10 UNK     1       8.957  17.330 -12.662  1.00  0.00     0.037 A 
ATOM     15  C11 UNK     1       8.353  18.462 -12.122  1.00  0.00     0.016 A 
ATOM     16  C12 UNK     1       6.959  18.592 -12.164  1.00  0.00    -0.007 A 
ATOM     17  C13 UNK     1       6.299  19.715 -11.632  1.00  0.00     0.014 A 
ATOM     18  C17 UNK     1       6.216  17.554 -12.766  1.00  0.00     0.068 A 
ATOM     19  C14 UNK     1       4.911  19.810 -11.696  1.00  0.00     0.001 A 
ATOM     20  C15 UNK     1       4.177  18.792 -12.292  1.00  0.00     0.002 A 
ATOM     21  C16 UNK     1       4.835  17.677 -12.820  1.00  0.00     0.032 A 
ATOM     22  N2  UNK     1       6.792  16.461 -13.290  1.00  0.00    -0.244 NA
ENDBRANCH   2  13
TORSDOF 3
ENDMDL
MODEL 10
REMARK VINA RESULT:      -6.2      2.883      3.604
REMARK  3 active torsions:
REMARK  status: ('A' for Active; 'I' for Inactive)
REMARK    1  A    between atoms: C1_2  and  S1_3 
REMARK    2  A    between atoms: C1_2  and  C9_13 
REMARK    3  A    between atoms: S1_3  and  C2_4 
ROOT
ATOM      1  O1  UNK     1      17.245   3.613  14.028  1.00  0.00    -0.278 OA
ATOM      2  C1  UNK     1      16.740   4.477  13.319  1.00  0.00     0.244 C 
ENDROOT
BRANCH   2   3
ATOM      3  S1  UNK     1      14.997   4.637  13.192  1.00  0.00    -0.018 SA
BRANCH   3   4
ATOM      4  C2  UNK     1      14.688   3.395  11.999  1.00  0.00     0.143 A 
ATOM      5  N1  UNK     1      15.102   3.448  10.755  1.00  0.00    -0.233 NA
ATOM      6  C3  UNK     1      14.645   2.332  10.061  1.00  0.00     0.075 A 
ATOM      7  C4  UNK     1      14.859   2.053   8.694  1.00  0.00     0.033 A 
ATOM      8  C8  UNK     1      13.901   1.422  10.814  1.00  0.00     0.036 A 
ATOM      9  C5  UNK     1      14.325   0.889   8.126  1.00  0.00     0.002 A 
ATOM     10  C6  UNK     1      13.586  -0.001   8.899  1.00  0.00     0.002 A 
ATOM     11  C7  UNK     1      13.365   0.248  10.254  1.00  0.00     0.021 A 
ATOM     12  S2  UNK     1      13.787   1.998  12.429  1.00  0.00    -0.061 SA
ENDBRANCH   3   4
ENDBRANCH   2   3
BRANCH   2  13
ATOM     13  C9  UNK     1      17.579   5.337  12.426  1.00  0.00     0.115 A 
ATOM     14  C10 UNK     1      17.879   6.634  12.825  1.00  0.00     0.037 A 
ATOM     15  C11 UNK     1      18.695   7.407  12.005  1.00  0.00     0.016 A 
ATOM     16  C12 UNK     1      19.191   6.868  10.811  1.00  0.00    -0.007 A 
ATOM     17  C13 UNK     1      20.017   7.607   9.945  1.00  0.00     0.014 A 
ATOM     18  C17 UNK     1      18.838   5.540  10.489  1.00  0.00     0.068 A 
ATOM     19  C14 UNK     1      20.494   7.035   8.768  1.00  0.00     0.001 A 
ATOM     20  C15 UNK     1      20.153   5.726   8.452  1.00  0.00     0.002 A 
ATOM     21  C16 UNK     1      19.331   4.993   9.313  1.00  0.00     0.032 A 
ATOM     22  N2  UNK     1      18.054   4.788  11.277  1.00  0.00    -0.244 NA
ENDBRANCH   2  13
TORSDOF 3
ENDMDL
